_cell_length_a 8.39304
_cell_length_b 22.23511
_cell_length_c 18.74218
_cell_angle_alpha 90.0
_cell_angle_beta 94.0312
_cell_angle_gamma 90.0
_symmetry_space_group_name_H-M         'P 1'
_symmetry_Int_Tables_number            1
loop_
_symmetry_equiv_pos_as_xyz
   'x, y, z'
                         
loop_
_atom_site_label
_atom_site_type_symbol
_atom_site_fract_x 
_atom_site_fract_y
_atom_site_fract_z
_atom_site_charge
Cd Cd 0.3284044009085569 0.558471134768652 0.9900633786658912 0.0
O O 0.4410853021958813 0.4581220177855484 1.0558624322306884 0.0
O O 0.19096030424488764 0.5092982548103275 1.0768260792746602 0.0
O O 0.8963447487748284 0.7777163357647447 1.1728264513436022 0.0
O O 0.4047086183767264 0.7838371201293225 1.2652845754229969 0.0
N N 0.4683519219423064 0.623441575309417 1.0581978069720535 0.0
N N 0.6407602500029194 0.7648715209867456 1.1988658890912611 0.0
C C 0.3103862107772628 0.46208789602541755 1.0883283567204651 0.0
C C 0.2711958869866669 0.42160818103279724 1.1455821759629417 0.0
C C 0.13517992469838383 0.42722136973382946 1.1793445382775969 0.0
H H 0.0602699246983838 0.4580813697338295 1.1667045382775967 0.0
C C 0.10059837434815483 0.3836752375924347 1.2433888576183683 0.0
H H 0.001688374348154795 0.3842352375924347 1.2650488576183683 0.0
C C 0.21761159971807298 0.3296780819695847 1.2394130890336637 0.0
C C 0.33683115778028583 0.32991168240602087 1.2177086479808685 0.0
C C 0.38111719942807953 0.37022250994553074 1.1663065575335638 0.0
H H 0.4787271994280796 0.3681925099455307 1.1437765575335639 0.0
C C 0.5280235559238751 0.7817836066190363 1.2477716175200106 0.0
C C 0.7846307703296614 0.7935037288391998 1.1900643567561489 0.0
C C 0.5461327356147718 0.6548263559649611 1.046207649880479 0.0
H H 0.5745427356147719 0.6520963559649612 0.9980776498804792 0.0
C C 0.6171125309144216 0.7083188168400077 1.0908696100634838 0.0
H H 0.6879225309144217 0.7366888168400075 1.0723296100634838 0.0
C C 0.5771400107784941 0.7153268961470568 1.1580138587719995 0.0
C C 0.4933515706251847 0.6728737439024286 1.1809709863505864 0.0
H H 0.46504157062518464 0.6730437439024286 1.2291309863505866 0.0
C C 0.40743653323355333 0.6214376545497485 1.125593263566048 0.0
H H 0.33394653323355333 0.5929076545497486 1.1419532635660479 0.0
O O 0.2760055502417583 0.6472109829337666 0.9084861756678502 0.0
O O 0.08945161007349721 0.6206624016932395 0.9886694026316792 0.0
O O -0.14331567845560494 0.3287519966408401 0.7635451978211689 0.0
O O 0.3421564522903056 0.3743049574974982 0.6631298572390752 0.0
N N 0.11697902545557586 0.36055721838885624 0.7331269919908365 0.0
N N 0.21675878668669285 0.4888848690223145 0.9043464453711024 0.0
C C 0.1647653870300173 0.6576528266513814 0.9377817941355305 0.0
C C 0.0229543465713743 0.6999071561411678 0.900631572356291 0.0
C C -0.09178908827517325 0.7119142455245294 0.9417972341718313 0.0
H H -0.12599908827517325 0.6871842455245295 0.9790572341718312 0.0
C C 0.19573469347697098 0.27249548366225734 0.5782869772860766 0.0
H H 0.29414469347697103 0.28136548366225733 0.5585469772860766 0.0
C C 0.1397442286948779 0.2982117012733831 0.6468457133771308 0.0
C C -0.00590546571763449 0.2892495624455493 0.6693210954356476 0.0
C C 0.09677144913544476 0.7391221933507897 0.856881682187149 0.0
H H 0.1972614491354448 0.7316921933507897 0.8381416821871491 0.0
C C 0.2351369264951179 0.3446544004536185 0.6849624696574991 0.0
C C -0.03371133009053369 0.33465906928490363 0.7395891362436948 0.0
C C 0.26567475119166956 0.5078901043317516 0.8209830413363759 0.0
H H 0.3211947511916695 0.5436601043317517 0.8107530413363759 0.0
C C 0.2323660309360075 0.46092022650445846 0.7724798934528613 0.0
H H 0.2606760309360075 0.46939022650445844 0.7253398934528613 0.0
C C 0.15538965242892955 0.4068691795242019 0.7828366539561454 0.0
C C 0.09195443555740448 0.40316004193342414 0.8527989624660957 0.0
H H 0.03197443555740448 0.3687300419334242 0.8646589624660957 0.0
C C 0.13492498039781867 0.4514664856077196 0.8992956682304197 0.0
H H 0.10317498039781864 0.44484648560771956 0.9463756682304197 0.0
Cd Cd -0.3001702758145084 1.0577080947442032 -0.48373426247845486 0.0
O O -0.43227766144481883 0.9590030522119612 -0.5588908857590602 0.0
O O -0.1897762204009811 1.0123547033725078 -0.5848095673073641 0.0
O O -0.894754764928146 1.2624968270868446 -0.6512738676762143 0.0
O O -0.41635888506866087 1.2612861522538288 -0.7773258215876021 0.0
N N -0.4390845988103827 1.1203011134661285 -0.571757060821436 0.0
N N -0.6253048912410882 1.258897238635666 -0.707944924731483 0.0
C C -0.2885480159054757 0.9610407232284391 -0.5834079535537787 0.0
C C -0.2682655724007297 0.9216805707901294 -0.6416746864463779 0.0
C C -0.14043379550472013 0.9130110011396596 -0.6731982119492061 0.0
H H -0.06552379550472015 0.9438710011396598 -0.6605582119492062 0.0
C C -0.09210893024332531 0.8836483202667538 -0.7394725355062555 0.0
H H 0.006801069756674707 0.8842083202667538 -0.7611325355062555 0.0
C C -0.19775572732906715 0.8359403181098445 -0.7505417162814202 0.0
C C -0.3477707712414705 0.8314680881869485 -0.7170924868164427 0.0
C C -0.3937807708617125 0.8823309054445242 -0.6622355188302781 0.0
H H -0.4913907708617126 0.8803009054445242 -0.639705518830278 0.0
C C -0.5719555561437235 1.2871717105346576 -0.7516351746361373 0.0
C C -0.774504429329816 1.281933090637457 -0.698567204625318 0.0
C C -0.5584854334393824 1.1561227001866716 -0.5354817717112638 0.0
H H -0.5868954334393824 1.1533927001866715 -0.4873517717112639 0.0
C C -0.605485042106021 1.206917733507308 -0.5889890938796061 0.0
H H -0.6762950421060212 1.235287733507308 -0.570449093879606 0.0
C C -0.5812062290650327 1.2067727439841571 -0.6523101637136309 0.0
C C -0.4657175014683774 1.1752240570991026 -0.671580276341421 0.0
H H -0.4374075014683774 1.1753940570991026 -0.7197402763414209 0.0
C C -0.41631458146633105 1.123891974384796 -0.6337040381868545 0.0
H H -0.34282458146633105 1.095361974384796 -0.6500640381868548 0.0
O O -0.2713266168301342 1.1345968830432744 -0.40822036096154646 0.0
O O -0.07301841480214688 1.1245011481004445 -0.49420850597816296 0.0
O O 0.1407075686856341 0.8395198693859209 -0.27689829174699754 0.0
O O -0.3516892587618236 0.8748876355709642 -0.1766505865595845 0.0
N N -0.11066806772663154 0.8724994564084291 -0.24337999335522548 0.0
N N -0.20578009522215013 0.9955141326640199 -0.3934944725135775 0.0
C C -0.16363817217293353 1.1575534166075019 -0.44324029362310635 0.0
C C -0.048792543902169146 1.206982145874838 -0.41662259892288755 0.0
C C 0.09303987281532662 1.2216089546558275 -0.4449744268927442 0.0
H H 0.12724987281532663 1.1968789546558276 -0.48223442689274415 0.0
C C -0.19619152487299168 0.7596075681778114 -0.08448224497292822 0.0
H H -0.2946015248729917 0.7684775681778114 -0.06474224497292826 0.0
C C -0.11998224958289974 0.7964563151668798 -0.15428277029903123 0.0
C C -0.007207070871085126 0.7962464656188804 -0.1726759694973491 0.0
C C -0.09654027900811554 1.2443812122514475 -0.3642783924077707 0.0
H H -0.19703027900811554 1.2369512122514477 -0.3455383924077708 0.0
C C -0.2161017551517178 0.8491472397677406 -0.17400803054647682 0.0
C C 0.0339953733354882 0.8311143549652875 -0.22743676615819355 0.0
C C -0.26342070920485106 1.0007912427634327 -0.32611422251652744 0.0
H H -0.318940709204851 1.0365612427634328 -0.3158842225165275 0.0
C C -0.24049227240149498 0.9613889634192857 -0.27064779922475135 0.0
H H -0.268802272401495 0.9698589634192857 -0.22350779922475136 0.0
C C -0.1505430084396961 0.9186740712912267 -0.29819730780719533 0.0
C C -0.1018322970338079 0.9083839407737722 -0.36451932717661645 0.0
H H -0.04185229703380791 0.8739539407737723 -0.3763793271766165 0.0
C C -0.1386484798155697 0.9493523251032915 -0.4110868136247829 0.0
H H -0.10689847981556969 0.9427323251032915 -0.4581668136247829 0.0
Cd Cd -0.30724559540404883 -0.5589051284334302 -0.980290507210782 0.0
O O -0.4443580475816356 -0.4615500519635528 -1.0557203001916573 0.0
O O -0.20425419594216634 -0.5102727441870084 -1.0863409551232146 0.0
O O -0.8820545640819331 -0.7773604983622892 -1.1658570863624669 0.0
O O -0.4390119077238777 -0.7633519004946148 -1.2538994649431698 0.0
N N -0.45118190054565027 -0.6176827877297435 -1.063517677182509 0.0
N N -0.63630608513553 -0.7528359271686353 -1.198779787106382 0.0
C C -0.3207184643223727 -0.46994882636675334 -1.0941344096802894 0.0
C C -0.2908237351440095 -0.4206139203479059 -1.1422360712214823 0.0
C C -0.15055541093860988 -0.41351522904064875 -1.1877510910910176 0.0
H H -0.07564541093860984 -0.44437522904064874 -1.1751110910910176 0.0
C C -0.10281214068561512 -0.3710971719397445 -1.2321609933366384 0.0
H H -0.003902140685615091 -0.3716571719397445 -1.2538209933366384 0.0
C C -0.21203109027253292 -0.32941678888008413 -1.2495526484399306 0.0
C C -0.3608205094634843 -0.3331725277742328 -1.223632458615074 0.0
C C -0.4102468794054258 -0.37621729135485565 -1.1664985222296405 0.0
H H -0.5078568794054259 -0.3741872913548556 -1.1439685222296405 0.0
C C -0.5689600213475652 -0.7916532073945377 -1.2555368240945546 0.0
C C -0.7742715287169744 -0.788158342576147 -1.2039871679642475 0.0
C C -0.5379948128313976 -0.6650982263495273 -1.0393267397111794 0.0
H H -0.5664048128313977 -0.6623682263495275 -0.9911967397111794 0.0
C C -0.6204331428502103 -0.7109836697777044 -1.093784724581882 0.0
H H -0.6912431428502105 -0.7393536697777043 -1.075244724581882 0.0
C C -0.5824242287148539 -0.7079154532941417 -1.1627534659732484 0.0
C C -0.4651219464615758 -0.6625440057077253 -1.176520581269326 0.0
H H -0.4368119464615758 -0.6627140057077253 -1.2246805812693262 0.0
C C -0.4078588369390301 -0.6227178208541373 -1.1361673115363982 0.0
H H -0.3343688369390301 -0.5941878208541373 -1.152527311536398 0.0
O O -0.27056836733398953 -0.638229305737108 -0.9115689682812159 0.0
O O -0.1028197229569536 -0.6185183456889723 -0.9821963504239413 0.0
O O 0.14595538484661436 -0.34000113827125084 -0.7510782869001263 0.0
O O -0.32716516706688786 -0.37558215479199425 -0.6803032772870248 0.0
N N -0.09366471611678728 -0.37255774639093353 -0.7313163405993535 0.0
N N -0.21986085538939135 -0.49124941553966106 -0.8974528492630646 0.0
C C -0.12081880826621733 -0.6494033009660963 -0.929045436561728 0.0
C C -0.031242448055135402 -0.7059576946489822 -0.9007205692320734 0.0
C C 0.07415934161096165 -0.7126875199936212 -0.9457544207853553 0.0
H H 0.10836934161096168 -0.6879575199936213 -0.9830144207853553 0.0
C C -0.2062350602309643 -0.2652747531181669 -0.5909628971299064 0.0
H H -0.3046450602309643 -0.2741447531181669 -0.5712228971299064 0.0
C C -0.13297163178795635 -0.29849873092514323 -0.6527251413642972 0.0
C C -0.011484365292408693 -0.2889335965563418 -0.6715678395180089 0.0
C C -0.1194065869505848 -0.736100116110598 -0.8555095071218249 0.0
H H -0.2198965869505848 -0.7286701161105981 -0.836769507121825 0.0
C C -0.20543939612513235 -0.35264906352259484 -0.6829587942223889 0.0
C C 0.0314610875464843 -0.3371170557925106 -0.7265970951816958 0.0
C C -0.27573565455705246 -0.5018187459987555 -0.8322425738092569 0.0
H H -0.33125565455705247 -0.5375887459987556 -0.8220125738092569 0.0
C C -0.2222850164734677 -0.46531983296583684 -0.7818913437999231 0.0
H H -0.25059501647346766 -0.4737898329658368 -0.7347513437999231 0.0
C C -0.14172501845588617 -0.4132872581543909 -0.7850405487669946 0.0
C C -0.08616139028211503 -0.40572665903650473 -0.8593608535062367 0.0
H H -0.026181390282115042 -0.3712966590365048 -0.8712208535062368 0.0
C C -0.1374927905388479 -0.44136259565947816 -0.9120360254524118 0.0
H H -0.10574279053884787 -0.43474259565947815 -0.9591160254524118 0.0
Cd Cd 0.3087887390378971 -1.057041578234575 0.48272375598798245 0.0
O O 0.4370973053189628 -0.9655574213037198 0.5637018928576261 0.0
O O 0.2033194275917931 -1.0006830784219087 0.5824117813680751 0.0
O O 0.8732913522581836 -1.26809469819943 0.6681453119722954 0.0
O O 0.4273671095222278 -1.2621978884956113 0.7557747686376032 0.0
N N 0.4453432693516386 -1.1242143380518148 0.5624326226338494 0.0
N N 0.6389228912236197 -1.2608956660844743 0.7102868330307452 0.0
C C 0.29808319331642874 -0.9700030843709729 0.5915129975111041 0.0
C C 0.26449148743868006 -0.9146927539250914 0.6419868867284388 0.0
C C 0.13361952027402302 -0.9293630859962472 0.6758583437746278 0.0
H H 0.05870952027402303 -0.9602230859962474 0.6632183437746278 0.0
C C 0.08835963654328699 -0.8790018538799264 0.7316056338664885 0.0
H H -0.010550363456713029 -0.8795618538799264 0.7532656338664885 0.0
C C 0.21402384473385708 -0.8450916464968021 0.7495476426139542 0.0
C C 0.36974452276615954 -0.8348277401840547 0.7112677983470775 0.0
C C 0.3753420768567034 -0.881837543866109 0.6650617113770451 0.0
H H 0.4729520768567035 -0.879807543866109 0.6425317113770451 0.0
C C 0.5497879774780625 -1.2865187347264841 0.7456283429616102 0.0
C C 0.8017993003078743 -1.2840637263430463 0.706345705686771 0.0
C C 0.5660400243410901 -1.1678361686507461 0.5418586026659796 0.0
H H 0.5944500243410903 -1.165106168650746 0.4937286026659798 0.0
C C 0.6320567466906216 -1.2119435627088027 0.5840930996194444 0.0
H H 0.7028667466906218 -1.2403135627088029 0.5655530996194443 0.0
C C 0.5643402330157512 -1.207584504555215 0.6529896367058865 0.0
C C 0.4725606844108019 -1.1611481516707207 0.6862933642777277 0.0
H H 0.4442506844108019 -1.1613181516707207 0.7344533642777276 0.0
C C 0.39990179381643165 -1.1225858700079439 0.6255730407011788 0.0
H H 0.3264117938164316 -1.094055870007944 0.641933040701179 0.0
O O 0.2898603377151174 -1.134348145621536 0.40657689410485787 0.0
O O 0.1036591725689052 -1.1171350950692585 0.4851029794476952 0.0
O O -0.13439493559904372 -0.8394640920085812 0.2624746390371783 0.0
O O 0.3558813090924749 -0.8846555907157926 0.18071350638988765 0.0
N N 0.12996438230261617 -0.8673756231675072 0.2414948339354668 0.0
N N 0.22266707171416714 -0.9978645080714851 0.39289328204286156 0.0
C C 0.12286853490665076 -1.1534473002291445 0.43272648092611304 0.0
C C 0.03999753471265781 -1.2132914190217603 0.40002472464690436 0.0
C C -0.1045478293701018 -1.2264175479331592 0.43251291213898757 0.0
H H -0.13875782937010178 -1.2016875479331592 0.4697729121389876 0.0
C C 0.1857074917679362 -0.7624824823682562 0.09683645529354591 0.0
H H 0.2841174917679362 -0.7713524823682563 0.07709645529354593 0.0
C C 0.13472941227440866 -0.8037331542072643 0.14309879109492635 0.0
C C 0.002565519408217219 -0.7821864258679612 0.17025829289819586 0.0
C C 0.09228587152674868 -1.2377693252258337 0.3459186513147596 0.0
H H 0.19277587152674866 -1.230339325225834 0.3271786513147596 0.0
C C 0.22746738598709187 -0.8559666272517632 0.17667556071244542 0.0
C C -0.026309873651933612 -0.829559515757355 0.22558695165384476 0.0
C C 0.2668848811746232 -1.0046901081501898 0.32239272384768725 0.0
H H 0.32240488117462324 -1.0404601081501899 0.3121627238476873 0.0
C C 0.2368529372483168 -0.9704371370942565 0.28110050474170206 0.0
H H 0.2651629372483168 -0.9789071370942565 0.2339605047417021 0.0
C C 0.1352701043776763 -0.9139045995248888 0.29352711652131847 0.0
C C 0.10969341009149305 -0.9085729004535747 0.3489071303541508 0.0
H H 0.04971341009149306 -0.8741429004535748 0.3607671303541508 0.0
C C 0.1427451316097872 -0.9479856375301705 0.4098936852877869 0.0
H H 0.11099513160978716 -0.9413656375301704 0.4569736852877868 0.0
