_cell_length_a 11.045
_cell_length_b 11.045
_cell_length_c 8.163
_cell_angle_alpha 90.0
_cell_angle_beta 90.0
_cell_angle_gamma 90.0
_symmetry_space_group_name_H-M         'P 1'
_symmetry_Int_Tables_number            1
loop_
_symmetry_equiv_pos_as_xyz
   'x, y, z'
                         
loop_
_atom_site_label
_atom_site_type_symbol
_atom_site_fract_x 
_atom_site_fract_y
_atom_site_fract_z
_atom_site_charge
C C 0.2626786930726709 0.4662448487951996 0.37086069500675595 0.0
C C 0.13779893518111588 0.46686233243212655 0.37882598390910915 0.0
C C 0.7516118016216423 0.5238753099922313 0.4116511215682065 0.0
C C 0.876088184329712 0.5417373406341958 0.38059729276132176 0.0
C C 0.5768638071426484 0.2191065936908697 0.40194185098170215 0.0
C C 0.5463773620915645 0.08261068826743914 0.3632122255974602 0.0
C C 0.44062064310318794 0.7454986179702909 0.3648489946168677 0.0
C C 0.47827030852355196 0.8351881294655908 0.3757663391450271 0.0
C C 0.7502931895738775 0.48233712565729964 0.6046480376450162 0.0
C C 0.8812657160478875 0.4744451733391823 0.6129694976452664 0.0
C C 0.27212483058946907 0.5492365397851966 0.6454478532982951 0.0
C C 0.11030446356200688 0.4661393273230202 0.6650067421039465 0.0
C C 0.47760392082139425 0.2761519131068606 0.6344764263735397 0.0
C C 0.4602486788576131 0.1300281578628427 0.590333235257882 0.0
C C 0.5517125374743406 0.7054751560182101 0.6345170724068468 0.0
C C 0.5617396494439751 0.8674889675742883 0.6287807598587788 0.0
C C 0.08304988238022772 0.47659637375249114 0.49872776049021317 0.0
C C 0.9102326928514362 0.4648341934544721 0.4943862017511888 0.0
C C 0.48632761271861324 0.05523201678112748 0.43083895198391714 0.0
C C 0.5287415845209739 0.9275251287356159 0.5245390451234232 0.0
H H 0.31684769307267097 0.43428084879519957 0.2675576950067559 0.0
H H 0.09112693518111592 0.4307793324321266 0.27189598390910913 0.0
H H 0.6974428016216422 0.5558393099922313 0.3083481215682064 0.0
H H 0.9227601843297119 0.5778203406341959 0.2736672927613218 0.0
H H 0.6088278071426484 0.27327559369086973 0.2986388509817021 0.0
H H 0.5824603620915646 0.035938688267439144 0.25628222559746017 0.0
H H 0.4086566431031879 0.691329617970291 0.2615459946168676 0.0
H H 0.44218730852355204 0.8818601294655908 0.2688363391450271 0.0
H H 0.6961241895738774 0.45037312565729953 0.7079510376450161 0.0
H H 0.9279377160478873 0.43836217333918226 0.7198994976452663 0.0
H H 0.32629383058946904 0.5812005397851967 0.748750853298295 0.0
H H 0.06363246356200687 0.5022223273230204 0.7719367421039465 0.0
H H 0.4456399208213942 0.33032091310686057 0.7377794263735397 0.0
H H 0.42416567885761314 0.08335615786284271 0.6972632352578818 0.0
H H 0.5836765374743406 0.6513061560182102 0.7378200724068468 0.0
H H 0.5978226494439751 0.9141609675742881 0.7357107598587788 0.0
Cu Cu 0.5018321762150482 0.5051160381664143 0.46067258916992937 0.0
Si Si 0.48330048153101013 0.4893836195318656 0.032332506625804586 0.0
F F 0.4722541356699565 0.4724447167575505 0.8257479776432729 0.0
F F 0.492633870884769 0.4984886852033816 0.13263676968196964 0.0
F F 0.38470080578016425 0.39375856434920453 0.014750180800811126 0.0
F F 0.6073128317154468 0.5622718129770028 -0.06412001236767895 0.0
F F 0.5972043884039866 0.3918782522031533 -0.014767761500201579 0.0
F F 0.3937189463814725 0.58344526586157 0.005969362565804834 0.0
N N 0.29887639091716545 0.4631424343220479 0.4954577834597008 0.0
N N 0.6763924219792635 0.5227109456983215 0.47259313548339443 0.0
N N 0.4773611489983316 0.33065193578807023 0.5667588096012893 0.0
N N 0.49445519929659254 0.6978073794138316 0.39549156175664835 0.0
