_cell_length_a 7.01484
_cell_length_b 7.01484
_cell_length_c 7.56557
_cell_angle_alpha 90.0
_cell_angle_beta 90.0
_cell_angle_gamma 90.0
_symmetry_space_group_name_H-M         'P 1'
_symmetry_Int_Tables_number            1
loop_
_symmetry_equiv_pos_as_xyz
   'x, y, z'
                         
loop_
_atom_site_label
_atom_site_type_symbol
_atom_site_fract_x 
_atom_site_fract_y
_atom_site_fract_z
_atom_site_charge
N N 0.49573891309563695 0.12281009818769309 0.46088758879610064 0.0
C C 0.5224331731462573 0.09325759206152291 0.33803631566863496 0.0
H H 0.5224331731462573 0.1608375920615229 0.2368545156686349 0.0
Ni Ni 0.5003492958046716 0.48771644932833436 0.5099777527260099 0.0
F F 0.5300992258534931 0.525445353336114 0.2223954754175165 0.0
F F 0.31409388974691316 0.3590352630275438 0.05199678089309922 0.0
Si Si 0.48027590329172 0.5291093729933098 -0.005285654664327903 0.0
N N -0.2584556488476638 0.45201053459839635 0.4805766366419075 0.0
C C -0.07180891991578509 0.52909376309168 0.3747889179970489 0.0
H H -0.1393889199157851 0.52909376309168 0.2736071179970489 0.0
F F -0.3582692318256886 0.3373984634757671 -0.03835784023457359 0.0
N N -0.4785322087228963 -0.2451745869652897 0.5184443109866872 0.0
C C -0.5231633101791204 -0.08027421660900114 0.39397837916329165 0.0
H H -0.5231633101791204 -0.1478542166090011 0.29279657916329166 0.0
F F -0.3433505248235864 -0.3286747908931123 -0.005937888316102611 0.0
N N 0.11857369162718293 -0.49653052863078295 0.47178748617190475 0.0
C C 0.08902030022076265 -0.5415325562293457 0.35839692673995766 0.0
H H 0.15660030022076266 -0.5415325562293457 0.25721512673995767 0.0
F F 0.3452597412440518 -0.31837490944634556 0.0277290984460456 0.0
C C -0.5171230678201773 -0.07487348148777535 -0.42615550574118627 0.0
H H -0.5171230678201773 -0.14245348148777534 -0.3249737057411862 0.0
F F -0.567574781300588 -0.4776712404815874 -0.25334331023254847 0.0
C C 0.09238898831771009 -0.5417381600267709 -0.3905420579441844 0.0
H H 0.1599689883177101 -0.5417381600267709 -0.2893602579441844 0.0
C C 0.49899229710850657 0.049740102007989596 -0.39974958195728294 0.0
H H 0.49899229710850657 0.11732010200798956 -0.29856778195728295 0.0
C C -0.0895067209135122 0.535596369309823 -0.3634435645452855 0.0
H H -0.15708672091351217 0.535596369309823 -0.2622617645452855 0.0
