_cell_length_a 27.1013
_cell_length_b 9.27321
_cell_length_c 16.979215
_cell_angle_alpha 90.0
_cell_angle_beta 99.1565
_cell_angle_gamma 90.0
_symmetry_space_group_name_H-M         'P 1'
_symmetry_Int_Tables_number            1
loop_
_symmetry_equiv_pos_as_xyz
   'x, y, z'
                         
loop_
_atom_site_label
_atom_site_type_symbol
_atom_site_fract_x 
_atom_site_fract_y
_atom_site_fract_z
_atom_site_charge
Zn Zn -0.17456721264210434 0.7866257062996146 -0.3322460717045978 0.0
Zn Zn -0.1805132884460372 0.3860036306020536 -0.5523284896099458 0.0
O O -0.23016550243902514 0.6221101285432953 -0.2986680698500579 0.0
O O -0.1689969415788176 0.6483356122995617 -0.4076293821193283 0.0
O O -0.2190780256209205 0.4358604463158177 -0.4632749995949525 0.0
O O -0.2991023207075298 0.27952894979452036 -0.40253447325050123 0.0
O O -0.36467180050194226 0.4202997494760683 -0.457336673589585 0.0
O O -0.32286231743884725 0.4736755313277319 -0.2556230426283794 0.0
O O -0.35082240500806217 0.6376773866458944 -0.21540482789407614 0.0
O O -0.32437527763330815 0.9491281188734348 -0.36521842237348073 0.0
O O -0.24534730571280292 0.9002426374372742 -0.39871014599852317 0.0
N N -0.11262440874464975 0.6887237986258035 -0.2789427687221763 0.0
N N 0.10514651614508319 0.44698587372552895 0.00011365824676092817 0.0
C C -0.24057866647725593 0.5310613280372031 -0.3630104129004864 0.0
H H -0.23603966647725594 0.44354132803720314 -0.3303090129004864 0.0
C C -0.28590031352081346 0.5325731838258508 -0.3971166611691744 0.0
H H -0.28624131352081345 0.5896431838258509 -0.44581526116917436 0.0
C C -0.3144274028002021 0.6497211122051487 -0.3286856750858277 0.0
H H -0.343098402800202 0.7024911122051487 -0.3572442750858276 0.0
C C -0.27961161716090643 0.7267556728607625 -0.3128043914786828 0.0
H H -0.28270261716090644 0.7603356728607626 -0.2590529914786828 0.0
C C -0.20969582896927094 0.5265382492849363 -0.4225806842101976 0.0
C C -0.31783678272219945 0.4050522911458074 -0.41897627865028525 0.0
C C -0.3297344494981066 0.540145047900005 -0.2535603641738407 0.0
C C -0.27432905724097734 0.8826847129419165 -0.3497848915476527 0.0
C C -0.09875762050539368 0.5667136807250441 -0.2580414073758688 0.0
H H -0.12320652050539366 0.5036836807250441 -0.28225960737586875 0.0
C C -0.04821290394162731 0.5031601363651964 -0.18965315687289447 0.0
H H -0.046301703941627304 0.40433013636519644 -0.1803112568728945 0.0
C C -0.02648781890991648 0.5574350626187398 -0.14838569628066242 0.0
C C -0.02970960289820972 0.7140361332878259 -0.18955214710332527 0.0
H H -0.006478402898209724 0.7802061332878258 -0.16493214710332527 0.0
C C -0.06459778495988344 0.8266101371855532 -0.26040948378622436 0.0
H H -0.06730658495988344 0.9245801371855533 -0.2719894837862244 0.0
C C 0.08476157578282352 0.34068429144159323 -0.06052885833854521 0.0
H H 0.09515047578282353 0.2454542914415932 -0.0633069583385452 0.0
C C 0.02604198825773459 0.37088410290790313 -0.11618291467799728 0.0
H H 0.008670788257734582 0.3062541029079032 -0.15236291467799729 0.0
C C 0.01775454703401116 0.520900713308055 -0.10866657017305084 0.0
C C 0.04288701904514822 0.6423010834140209 -0.04785303599197795 0.0
H H 0.03284591904514822 0.7372710834140209 -0.04292123599197796 0.0
C C 0.07962424770537206 0.5654790663620147 -0.013430012928332662 0.0
H H 0.09748314770537207 0.6276490663620147 0.02356178707166734 0.0
Zn Zn 0.1681118770825158 0.8055917272725819 0.852666158615027 0.0
Zn Zn 0.17771338601578718 0.37552103518564356 1.0375912657900783 0.0
O O 0.2259269552098309 0.6670395562482088 0.7995134945400371 0.0
O O 0.18227610888997328 0.6296860720715624 0.9328583781027253 0.0
O O 0.2169821811230253 0.43946871210640454 0.9553399221681307 0.0
O O 0.3023427347249246 0.2832501609092113 0.8885000763957713 0.0
O O 0.37175724079158584 0.41149050065696663 0.9659491579962595 0.0
O O 0.3170228229017309 0.40568455465530157 0.7393844666218604 0.0
O O 0.3716557602223298 0.6495579362557172 0.7399331089559614 0.0
O O 0.31600179335925505 0.9357450495970888 0.8810135301131027 0.0
O O 0.23834273763493224 0.8611935875837801 0.8863522824394723 0.0
N N 0.11036282137597109 0.6611901679503701 0.7441216809344978 0.0
N N -0.10137487825625706 0.41967177501502123 0.4963600856169669 0.0
C C 0.24853020261803221 0.5231243966968464 0.8553762327667734 0.0
H H 0.2439912026180322 0.4356043966968463 0.8226748327667734 0.0
C C 0.30166896821129924 0.5077404033342758 0.9000416918805564 0.0
H H 0.3020099682112993 0.5648104033342759 0.9487402918805564 0.0
C C 0.3112589236063513 0.6435813681782998 0.8406209718804075 0.0
H H 0.3399299236063514 0.6963513681782998 0.8691795718804075 0.0
C C 0.28767572958586096 0.7503385132609606 0.8178631222382196 0.0
H H 0.290766729585861 0.7839185132609607 0.7641117222382193 0.0
C C 0.217225542408255 0.5793682780265484 0.9036349704518384 0.0
C C 0.3198018771408897 0.39860800302963156 0.9236417347056138 0.0
C C 0.33784018999122944 0.567708784645363 0.7665927291688956 0.0
C C 0.2844998193512519 0.8701512332348292 0.8732346008011997 0.0
C C 0.10779067700646097 0.6100469250624742 0.7488451929542334 0.0
H H 0.13223957700646097 0.5470169250624741 0.7730633929542334 0.0
C C 0.07476445926829531 0.5093009057661717 0.6912987775877222 0.0
H H 0.0728532592682953 0.4104709057661717 0.6819568775877222 0.0
C C 0.035207999373655256 0.568212460726504 0.6525137403471422 0.0
C C 0.03231737910299812 0.7131203368649343 0.6616243538511313 0.0
H H 0.009086179102998117 0.7792903368649343 0.6370043538511312 0.0
C C 0.08544705755612986 0.8212438877378775 0.7209314416256247 0.0
H H 0.08815585755612985 0.9192138877378777 0.7325114416256246 0.0
C C -0.07458671460296243 0.3498253547432505 0.559985974389242 0.0
H H -0.08497561460296246 0.25459535474325046 0.562764074389242 0.0
C C -0.033237743682637454 0.3718199876188695 0.5970615760846147 0.0
H H -0.01586654368263744 0.30718998761886956 0.6332415760846147 0.0
C C -0.02156461386249134 0.5430377930877673 0.5865450060569313 0.0
C C -0.04821221369156313 0.6402708953745954 0.5514236219844748 0.0
H H -0.03817111369156313 0.7352408953745954 0.546491821984475 0.0
C C -0.08192638128727613 0.5809923745159782 0.5113907833968571 0.0
H H -0.09978528128727614 0.6431623745159781 0.4743989833968572 0.0
Zn Zn 0.33098510896621325 1.3192071208977387 -0.36156068311617323 0.0
Zn Zn 0.32331210160225965 0.870616008273235 -0.5559154671316388 0.0
O O 0.2625087106095731 1.1426569661002104 -0.28895601147912403 0.0
O O 0.33464732537390585 1.1121852743989988 -0.41569341602134213 0.0
O O 0.29773854970555896 0.9293704850124419 -0.4482271212511415 0.0
O O 0.20212181440894653 0.7608229618297717 -0.39402461743908224 0.0
O O 0.13600724296121341 0.8812245439083989 -0.4709557382190492 0.0
O O 0.1798562716132449 0.9091965867275372 -0.261839623920854 0.0
O O 0.1347566331548205 1.1025540970881011 -0.23880570034192064 0.0
O O 0.17896574566347098 1.446065554294131 -0.37337825693026344 0.0
O O 0.2644145829014901 1.3929038579809208 -0.4034472014487971 0.0
N N 0.395509570353384 1.1398210511615003 -0.27301648523292377 0.0
N N 0.6050301283905353 0.9388438913728477 -0.016683198340961856 0.0
C C 0.2512115671768596 1.0058380679434953 -0.3570942433856909 0.0
H H 0.25575056717685957 0.9183180679434952 -0.3243928433856909 0.0
C C 0.21456065621710463 1.0193900327397083 -0.39532046389268866 0.0
H H 0.21421965621710462 1.0764600327397083 -0.4440190638926887 0.0
C C 0.17529787304893543 1.1220386051479903 -0.3377560477389999 0.0
H H 0.14662687304893543 1.1748086051479907 -0.3663146477389999 0.0
C C 0.22298317946336912 1.2410596211621199 -0.30354759277745397 0.0
H H 0.21989217946336906 1.2746396211621198 -0.24979619277745396 0.0
C C 0.29157459652741724 0.9994056991813391 -0.4235524440687675 0.0
C C 0.17768429350497902 0.9138218637131071 -0.4208373438534789 0.0
C C 0.1648194992909072 1.114573313226626 -0.27017458901780533 0.0
C C 0.22411924350726234 1.3957821029440949 -0.3814285036721299 0.0
C C 0.3846885986858855 1.0454280600005217 -0.24050115032941552 0.0
H H 0.36023969868588557 0.9823980600005217 -0.2647193503294155 0.0
C C 0.42533739247514063 1.017925166191375 -0.20980529839035167 0.0
H H 0.4272485924751406 0.9190951661913751 -0.20046339839035168 0.0
C C 0.48150261613551876 1.121921626689212 -0.17176281372385688 0.0
C C 0.4735381373611764 1.2406745332984002 -0.18871840804055745 0.0
H H 0.4967693373611764 1.3068445332984 -0.16409840804055745 0.0
C C 0.41674398131201174 1.2915043747727695 -0.20512945347296985 0.0
H H 0.41403518131201167 1.3894743747727696 -0.21670945347296985 0.0
C C 0.5732605795481633 0.8217182693206319 -0.07054215541533586 0.0
H H 0.5836494795481636 0.7264882693206318 -0.07332025541533585 0.0
C C 0.5298693691834752 0.8562664173300193 -0.10489359990230794 0.0
H H 0.5124981691834752 0.7916364173300193 -0.14107359990230794 0.0
C C 0.5165966730062982 1.0549036740051945 -0.10715414219837793 0.0
C C 0.5371619635507204 1.098903387003847 -0.024359075167222723 0.0
H H 0.5271208635507205 1.1938733870038467 -0.019427275167222726 0.0
C C 0.580685288365977 1.0684720522637479 -0.008967234075463269 0.0
H H 0.598544188365977 1.1306420522637477 0.028024565924536733 0.0
Zn Zn 0.6738825498985614 1.2817525981218139 0.842069061946198 0.0
Zn Zn 0.6765119988293189 0.9041814107147816 1.049563269081349 0.0
O O 0.7300410342990425 1.1636708815270762 0.8063413204265302 0.0
O O 0.6824020458820919 1.1457333294500824 0.9164584074256679 0.0
O O 0.7123137762088135 0.9179272358881234 0.9534055414446592 0.0
O O 0.8029317549136915 0.8080540877213289 0.879736208293897 0.0
O O 0.8702108873629285 0.9092143713010548 0.9887626407978614 0.0
O O 0.8165539987035386 0.9353607864996153 0.7480565897937788 0.0
O O 0.8752434827225405 1.148323499823029 0.7189743000403385 0.0
O O 0.8149116977138863 1.449319596631624 0.854838555082106 0.0
O O 0.7470391732363315 1.399946167294718 0.9101595930653379 0.0
N N 0.5994817189588698 1.1639731741173027 0.7592550958299129 0.0
N N 0.39632023712453646 0.9187209663206642 0.516873840209851 0.0
C C 0.7573849131403487 1.0303776400366882 0.8672846131342983 0.0
H H 0.7528459131403488 0.9428576400366883 0.8345832131342983 0.0
C C 0.7976619493661217 1.0420812253125935 0.8946877240630802 0.0
H H 0.7980029493661214 1.0991512253125935 0.9433863240630801 0.0
C C 0.8101784472590532 1.1271399288463544 0.8313987390747754 0.0
H H 0.8388494472590533 1.1799099288463546 0.8599573390747753 0.0
C C 0.7780978355328281 1.254247766989412 0.8071685188258199 0.0
H H 0.7811888355328279 1.2878277669894123 0.7534171188258196 0.0
C C 0.7149212445015188 1.0361653525246162 0.9155111388747178 0.0
C C 0.8151300320843238 0.8741517582269376 0.913826120977925 0.0
C C 0.8300274564898101 1.0746982161409482 0.7740901495327394 0.0
C C 0.7762057868793073 1.3727444709408307 0.8676176136600026 0.0
C C 0.6123793016046053 1.0633302792555084 0.7580885674355871 0.0
H H 0.6368282016046054 1.0003002792555082 0.782306767435587 0.0
C C 0.5731997688947432 0.9889266567556708 0.6963509982135301 0.0
H H 0.571288568894743 0.8900966567556708 0.6870090982135301 0.0
C C 0.52952537035733 1.0816611241959393 0.6688570785495749 0.0
C C 0.5253715338617213 1.2199522424003297 0.6855340911008658 0.0
H H 0.5021403338617213 1.2861222424003298 0.6609140911008656 0.0
C C 0.576235362345683 1.2955918800665316 0.717436656651578 0.0
H H 0.578944162345683 1.393561880066532 0.729016656651578 0.0
C C 0.4292842789468689 0.8325456433233218 0.5840814769255974 0.0
H H 0.4188953789468689 0.7373156433233218 0.5868595769255974 0.0
C C 0.4713498650422191 0.9091029010802278 0.5988572577932639 0.0
H H 0.48872106504221907 0.8444729010802279 0.6350372577932639 0.0
C C 0.4837060616222459 1.020829164788231 0.5998474923980832 0.0
C C 0.46613476008680127 1.1361062171225336 0.5548519763712305 0.0
H H 0.4761758600868013 1.2310762171225336 0.5499201763712307 0.0
C C 0.41532084403678265 1.0822611575578793 0.5092448416495329 0.0
H H 0.3974619440367827 1.1444311575578792 0.4722530416495329 0.0
Zn Zn 0.17122749053766947 -0.804952815767268 0.35152012295390767 0.0
Zn Zn 0.17136550572686982 -0.4105616370224654 0.5571784174501089 0.0
O O 0.23597155903465653 -0.6709819051266721 0.31590207570406936 0.0
O O 0.17828435020272412 -0.6353741888660238 0.42652405419553063 0.0
O O 0.19228302119541824 -0.37850778616310454 0.4490711321202206 0.0
O O 0.2987286061684089 -0.28531047554199906 0.38968912948709566 0.0
O O 0.3575733237035022 -0.4297010624048921 0.47292307419521445 0.0
O O 0.3260264432921063 -0.4393775540570615 0.2644610295595072 0.0
O O 0.36674872682697535 -0.5968096165322275 0.21812630391976712 0.0
O O 0.3183086809802128 -0.9410815386602219 0.3758808523043845 0.0
O O 0.2397265167968458 -0.9045632578267382 0.39567839037782665 0.0
N N 0.11542885911133727 -0.6601477952317598 0.2784811103836928 0.0
N N -0.09449256612776501 -0.4548117019619322 -0.0007401050200025904 0.0
C C 0.23863914388922677 -0.5062838943991487 0.35577019804667187 0.0
H H 0.23410014388922676 -0.4187638943991487 0.3230687980466719 0.0
C C 0.29635023605497757 -0.5383756420636805 0.3935468951892561 0.0
H H 0.29669123605497755 -0.5954456420636806 0.44224549518925615 0.0
C C 0.3173175475236659 -0.6321014560435207 0.3347805354562379 0.0
H H 0.34598854752366587 -0.6848714560435207 0.36333913545623786 0.0
C C 0.26268839153049106 -0.7310774175555053 0.32455970278622054 0.0
H H 0.26577939153049107 -0.7646574175555053 0.27080830278622053 0.0
C C 0.2067829394757179 -0.541506649757655 0.42170441550969034 0.0
C C 0.32337134388423233 -0.38812753421217727 0.4148286091675047 0.0
C C 0.34240949073499843 -0.5119585368678367 0.26224160521059364 0.0
C C 0.27753245696574125 -0.8719779159359728 0.3654165067840967 0.0
C C 0.1148079836040053 -0.5759162463802036 0.2398080713150602 0.0
H H 0.13925688360400532 -0.5128862463802035 0.26402627131506023 0.0
C C 0.06342964944087091 -0.4883893057568543 0.21118463228044063 0.0
H H 0.061518449440870905 -0.3895593057568542 0.20184273228044067 0.0
C C 0.03078537041765641 -0.5817890734548639 0.15151785239608112 0.0
C C 0.0423664754263314 -0.7389046502572956 0.17441472201983407 0.0
H H 0.01913527542633141 -0.8050746502572955 0.14979472201983407 0.0
C C 0.08255089065530805 -0.7981886756488945 0.22153777183378218 0.0
H H 0.08525969065530804 -0.8961586756488946 0.23311777183378216 0.0
C C -0.08338912225732015 -0.34526010653509226 0.056064765696722384 0.0
H H -0.09377802225732015 -0.2500301065350922 0.05884286569672237 0.0
C C -0.026593936705438286 -0.3890172904329243 0.10581195209877206 0.0
H H -0.00922273670543829 -0.32438729043292436 0.14199195209877205 0.0
C C -0.01638971208237633 -0.5919236956742261 0.09499529113914525 0.0
C C -0.04237067700883523 -0.6470124213125583 0.039295313460803304 0.0
H H -0.03232957700883523 -0.7419824213125585 0.0343635134608033 0.0
C C -0.0837928564841461 -0.5936850091446578 0.0008579956360548687 0.0
H H -0.10165175648414611 -0.6558550091446579 -0.036133804363945136 0.0
Zn Zn -0.1802536293901354 -0.7799004686643756 -0.8485975149994865 0.0
Zn Zn -0.17787947523481043 -0.39901016193332334 -1.0508009552881394 0.0
O O -0.23086943473374924 -0.6667047911555091 -0.8235641253646466 0.0
O O -0.17244914704422384 -0.6487945273350996 -0.9225532464328255 0.0
O O -0.20034311522705792 -0.41780820746283126 -0.9522099728664367 0.0
O O -0.3046315954162452 -0.24640009687951006 -0.9142293991679551 0.0
O O -0.3800392514072409 -0.39040720786234323 -0.9537695759128315 0.0
O O -0.3133818911969551 -0.42046607943663117 -0.7525498524333281 0.0
O O -0.35956788177526366 -0.6334477701225 -0.7268170769341328 0.0
O O -0.3180507817718354 -0.939544438365942 -0.8705815025487202 0.0
O O -0.235750363779557 -0.8796824281684927 -0.8866773572011394 0.0
N N -0.1044990889072623 -0.6655408131719148 -0.7601928434142319 0.0
N N 0.09511569137554514 -0.4566250482681706 -0.5049808845120386 0.0
C C -0.23280921447263797 -0.5323364094152632 -0.8614406238550587 0.0
H H -0.22827021447263793 -0.4448164094152631 -0.8287392238550587 0.0
C C -0.2908135720762131 -0.5700486894224475 -0.8980666485185347 0.0
H H -0.2911545720762131 -0.6271186894224474 -0.9467652485185347 0.0
C C -0.31814003689340664 -0.6464335934973151 -0.8234805384138204 0.0
H H -0.34681103689340664 -0.6992035934973151 -0.8520391384138203 0.0
C C -0.27251272633854917 -0.7432095594928059 -0.8070150947085126 0.0
H H -0.27560372633854924 -0.776789559492806 -0.7532636947085125 0.0
C C -0.205966864855597 -0.49961534439337585 -0.9095663254969084 0.0
C C -0.31459465666803627 -0.4170738227372551 -0.9421780029037397 0.0
C C -0.33874363577868033 -0.5485441303377346 -0.7738811199483062 0.0
C C -0.2811632474742762 -0.875326442794644 -0.8687599394299651 0.0
C C -0.10436610851356169 -0.5655655248354403 -0.7524984723765833 0.0
H H -0.12881500851356167 -0.5025355248354403 -0.7767166723765833 0.0
C C -0.06885865798356772 -0.5097452841685584 -0.6941069155237678 0.0
H H -0.06694745798356772 -0.4109152841685583 -0.6847650155237678 0.0
C C -0.02695962318803082 -0.5745011082868221 -0.6422335708911067 0.0
C C -0.03892824479710941 -0.7163969331024361 -0.6969767515184567 0.0
H H -0.01569704479710942 -0.7825669331024361 -0.6723567515184566 0.0
C C -0.06414647173271913 -0.7878761674000383 -0.7475167777496946 0.0
H H -0.06685527173271912 -0.8858461674000385 -0.7590967777496946 0.0
C C 0.06853733986553531 -0.37215842780764063 -0.5436471674037162 0.0
H H 0.0789262398655353 -0.27692842780764054 -0.5464252674037162 0.0
C C 0.028761798773811964 -0.41153437280541605 -0.5979936769824608 0.0
H H 0.011390598773811978 -0.3469043728054161 -0.6341736769824607 0.0
C C 0.020958885377341013 -0.5784055009250878 -0.607714116384831 0.0
C C 0.0418031797699406 -0.6136088754125157 -0.5497368079755162 0.0
H H 0.03176207976994059 -0.7085788754125157 -0.5448050079755162 0.0
C C 0.08525300154145078 -0.5665173858931771 -0.48270517989204015 0.0
H H 0.10311190154145079 -0.6286873858931772 -0.4457133798920402 0.0
Zn Zn 0.6711877025159783 -0.2978716283460141 0.32493800350951824 0.0
Zn Zn 0.672041068568395 0.08872686867831156 0.5477936268976512 0.0
O O 0.7319944828117267 -0.16816640734785535 0.2959442913376005 0.0
O O 0.6890916974769571 -0.1454348429018528 0.4337170984044114 0.0
O O 0.7147386131740402 0.07260823967238353 0.4614923167921743 0.0
O O 0.7923397847890274 0.22849849700375216 0.3984012456192065 0.0
O O 0.8664503715563077 0.0599759607073752 0.47153087651603826 0.0
O O 0.8131463667731641 0.07950681556237507 0.2506361893533108 0.0
O O 0.8604399637959295 -0.14734296736982952 0.229785511322891 0.0
O O 0.8190417463032521 -0.47424678672659987 0.3505546449349449 0.0
O O 0.7332212392188799 -0.4162725594418019 0.39698722418894977 0.0
N N 0.6192721798331602 -0.18406558270695467 0.2557720295937083 0.0
N N 0.39340459209634404 0.10002521133123848 0.0055328407856450774 0.0
C C 0.7394562963589747 -0.016146073006782762 0.3438064777265423 0.0
H H 0.7349172963589746 0.07137392699321728 0.31110507772654233 0.0
C C 0.801233458036361 -0.05347018704161667 0.4066506746384982 0.0
H H 0.801574458036361 -0.11054018704161661 0.45534927463849817 0.0
C C 0.8193192733287991 -0.12254324033003636 0.34763763064094194 0.0
H H 0.8479902733287992 -0.17531324033003634 0.37619623064094193 0.0
C C 0.7723000997049475 -0.251555919061903 0.3049219341334765 0.0
H H 0.7753910997049475 -0.28513591906190305 0.2511705341334765 0.0
C C 0.7161185843928481 -0.058178059360768225 0.42474658284582456 0.0
C C 0.8154280329898477 0.10293700168692103 0.43362313450631734 0.0
C C 0.8395844225359372 -0.053130719887614246 0.26567184892752427 0.0
C C 0.7741482548959142 -0.3767827659919301 0.36976166996758564 0.0
C C 0.6186256665932867 -0.05971117978719852 0.2452447774905065 0.0
H H 0.6430745665932865 0.0033188202128015083 0.2694629774905065 0.0
C C 0.5665242033753894 0.0036063917357110277 0.17916581250117622 0.0
H H 0.5646130033753892 0.10243639173571098 0.16982391250117626 0.0
C C 0.5362605099167929 -0.09556182496723002 0.1677323018543427 0.0
C C 0.5362098267328382 -0.23074076670915644 0.1842554495805359 0.0
H H 0.5129786267328382 -0.29691076670915634 0.15963544958053588 0.0
C C 0.5687411214656374 -0.29219725539375124 0.22896296942129954 0.0
H H 0.5714499214656374 -0.39016725539375124 0.24054296942129957 0.0
C C 0.438216153652589 0.17519810900737104 0.05583403975819337 0.0
H H 0.427827253652589 0.2704281090073711 0.05861213975819336 0.0
C C 0.47524175998525 0.12272378861185487 0.12405200802162279 0.0
H H 0.49261295998525 0.18735378861185487 0.16023200802162277 0.0
C C 0.49003077664741534 -0.04920793500600816 0.1112084157359785 0.0
C C 0.44700488669940935 -0.13188718734706614 0.06523594699736632 0.0
H H 0.45704598669940927 -0.2268571873470661 0.060304146997366324 0.0
C C 0.40905255063442897 -0.07212104528823567 0.010565215000288689 0.0
H H 0.391193650634429 -0.1342910452882356 -0.026426584999711313 0.0
Zn Zn 0.32084820772121564 -0.33950787498197577 -0.8280230554653323 0.0
Zn Zn 0.32829513725456755 0.08725433181925657 -1.0533487297983268 0.0
O O 0.2670651709413527 -0.16212596017231604 -0.8018689698567235 0.0
O O 0.3146843899492364 -0.120433999368752 -0.9423663353868823 0.0
O O 0.29252977589647916 0.07261889934710143 -0.9540688107606894 0.0
O O 0.20253905555021998 0.19434734546046878 -0.8898335932029409 0.0
O O 0.13719919911184525 0.07549324042982974 -0.9597048452866597 0.0
O O 0.18120155088245385 0.05326263220568897 -0.7551210312690072 0.0
O O 0.14071625673901442 -0.10872185414769696 -0.7322412951533372 0.0
O O 0.16928574629052512 -0.46441069268467083 -0.8894407253359172 0.0
O O 0.2493379644488845 -0.3467116087925283 -0.8839227898636834 0.0
N N 0.38294056607589205 -0.18103774413971715 -0.7634566245647104 0.0
N N 0.600356340354774 0.06841762994686564 -0.4930001139834453 0.0
C C 0.2496536908609913 -0.01795479350616472 -0.8627083032577532 0.0
H H 0.2541926908609913 0.06956520649383531 -0.8300069032577532 0.0
C C 0.2024647623632023 -0.04887110867288498 -0.9092630656578993 0.0
H H 0.2021237623632023 -0.10594110867288493 -0.9579616656578994 0.0
C C 0.17478702019045503 -0.12730427338552935 -0.83514688148159 0.0
H H 0.146116020190455 -0.18007427338552934 -0.86370548148159 0.0
C C 0.22321068996607354 -0.24398403885824826 -0.808254379959943 0.0
H H 0.22011968996607356 -0.2775640388582483 -0.7545029799599428 0.0
C C 0.2950927818166102 -0.018940200779838205 -0.9145520359367831 0.0
C C 0.18408192327591563 0.10755389817118884 -0.9179846093216558 0.0
C C 0.16256923374588955 -0.06747917509371888 -0.7679033384804205 0.0
C C 0.22297334971585875 -0.3816277460700188 -0.8622394187985877 0.0
C C 0.39254728470772215 -0.07720928070782773 -0.759697235003239 0.0
H H 0.36809838470772216 -0.014179280707827712 -0.783915435003239 0.0
C C 0.43173258441285994 -0.004569353205545951 -0.7021961263664521 0.0
H H 0.43364378441286 0.09426064679445402 -0.6928542263664522 0.0
C C 0.48275326210071595 -0.09677140473114838 -0.6588780499190737 0.0
C C 0.45290367266980747 -0.2491741636072134 -0.6909325390963101 0.0
H H 0.4761348726698074 -0.31534416360721335 -0.66631253909631 0.0
C C 0.41581031763293214 -0.26535660741862604 -0.720025750547875 0.0
H H 0.4131015176329322 -0.36332660741862605 -0.7316057505478749 0.0
C C 0.5800847224255755 0.16914998741221063 -0.550385052367609 0.0
H H 0.5904736224255754 0.26437998741221064 -0.553163152367609 0.0
C C 0.5331125789900271 0.11562063783584442 -0.5995173890937078 0.0
H H 0.5157413789900273 0.1802506378358444 -0.6356973890937078 0.0
C C 0.5232126520644167 -0.036501012958446315 -0.5994456955172835 0.0
C C 0.544938342512233 -0.08855828124875413 -0.5513197189458958 0.0
H H 0.534897242512233 -0.1835282812487541 -0.546387918945896 0.0
C C 0.5860663282439855 -0.07988170400070434 -0.48724116819354313 0.0
H H 0.6039252282439854 -0.1420517040007043 -0.45024936819354316 0.0
