_cell_length_a 12.935
_cell_length_b 23.242012
_cell_length_c 12.93505
_cell_angle_alpha 90.0
_cell_angle_beta 90.0
_cell_angle_gamma 90.0
_symmetry_space_group_name_H-M         'P 1'
_symmetry_Int_Tables_number            1
loop_
_symmetry_equiv_pos_as_xyz
   'x, y, z'
                         
loop_
_atom_site_label
_atom_site_type_symbol
_atom_site_fract_x 
_atom_site_fract_y
_atom_site_fract_z
_atom_site_charge
C C 0.5458397938470461 1.174914401387714 0.5963966808929825 0.0
C C 0.4489473343832189 1.223442456722904 0.5884264769098932 0.0
C C 0.3802918503866073 1.1478664274771837 0.6011894740111348 0.0
H H 0.4136418503866073 1.1114364274771837 0.5986394740111347 0.0
C C 0.2745114543509086 1.1616192612195801 0.591247278488066 0.0
C C 0.21069450602834694 1.2247672444385058 0.737072591566221 0.0
C C 0.35540548636466524 1.2907095206008457 0.687665206237435 0.0
H H 0.3251554863646653 1.3278795206008456 0.690125206237435 0.0
C C 0.3862773898652834 1.2718641928919476 0.6268775290662296 0.0
H H 0.43152738986528333 1.3039341928919477 0.6255275290662297 0.0
C C 0.19540662747117546 1.1118281152382081 0.5565839783508456 0.0
H H 0.22174662747117538 1.073998115238208 0.5485239783508458 0.0
C C 0.12957832556727203 1.115057545119866 0.6447989774608825 0.0
H H 0.08702832556727201 1.0822175451198661 0.6555489774608826 0.0
C C 0.021296034141431962 1.170047089921982 0.6742263257169486 0.0
C C 0.08858393692832599 1.2251958119776147 0.625849926638712 0.0
H H 0.061133936928326 1.2630658119776148 0.6235999266387119 0.0
C C 0.7750597677001003 1.1600928444111496 0.4754917469893232 0.0
C C 0.7308224536359008 1.1667243867552348 0.813957046206927 0.0
C C 0.7183337563670827 1.1890527855898934 0.9447905560975295 0.0
C C 0.7376322233094291 1.1404332977944989 1.0444470538008768 0.0
H H 0.7390822233094291 1.1026032977944988 1.0164970538008768 0.0
C C 0.7317610191684686 1.2024386012395345 1.1642379781079246 0.0
C C 0.7417785079944011 1.2053564927957574 1.1141279890528861 0.0
C C 0.7191388954174959 1.2434091953119228 1.149788292488292 0.0
H H 0.737388895417496 1.279989195311923 1.176638292488292 0.0
C C 0.6971647364494836 1.2383315087435467 0.9961396124353837 0.0
H H 0.6699147364494837 1.2712015087435466 0.9620896124353837 0.0
C C 0.7142149048454949 1.0987425163914568 1.1922827601968937 0.0
H H 0.7262549048454948 1.0624125163914568 1.1608327601968935 0.0
C C 0.7544682705018874 1.1156524472966192 1.3079680638930504 0.0
H H 0.7526982705018873 1.0819224472966191 1.3495080638930506 0.0
C C 0.7457070981523202 1.1844394233216602 1.396678315776715 0.0
C C 0.7427722685090725 1.2169930784098277 1.2502643790606678 0.0
H H 0.7565222685090726 1.2530630784098278 1.2819243790606678 0.0
C C 0.9031795609710527 1.1834941092246278 0.7048183531311293 0.0
C C 0.7847028025904769 1.0059953062687774 0.8040158144237309 0.0
H H 0.8089428025904768 1.0359653062687777 0.847555814423731 0.0
C C 0.8246316819139891 0.9738832016025203 0.8681895310850957 0.0
H H 0.844561681913989 0.9655432016025203 0.9372295310850958 0.0
C C 0.7382903288054358 0.9195479563486748 0.7679825458888607 0.0
H H 0.761130328805436 0.8814179563486748 0.7809225458888607 0.0
C C 0.693335233976424 0.9423333156324152 0.6180792115501872 0.0
C C 0.690757621978927 0.9533466527491796 0.6004645393793406 0.0
C C 0.669636901676888 1.015055378499014 0.46226027240906453 0.0
H H 0.6481869016768881 1.0536253784990142 0.45090027240906444 0.0
C C 0.6280062910709565 0.949315565277925 0.41465492746904786 0.0
H H 0.6016362910709566 0.962275565277925 0.3500849274690478 0.0
C C 0.6212311918678517 0.8949964921314014 0.49712798717048556 0.0
H H 0.5889611918678517 0.8667564921314013 0.45466798717048557 0.0
C C 0.6497598806433001 0.9111524885550185 0.5535224258625547 0.0
C C 0.6273403499039585 0.7843284358217197 0.6005332155564909 0.0
C C 0.7466922645490884 0.824277701480761 0.6594120789962706 0.0
C C 0.8219377659291287 0.7637296472373886 0.6557110566560982 0.0
C C 0.8945410683665956 0.7281875414731067 0.55821904926233 0.0
H H 0.9488710683665956 0.7487375414731066 0.52543904926233 0.0
C C 0.8448521219340068 0.6909274787751211 0.6241315859557923 0.0
H H 0.9142821219340068 0.678757478775121 0.6338415859557922 0.0
C C 0.7993139556069795 0.6546623867828543 0.5789890757837354 0.0
C C 0.7513558771726867 0.6489224349183009 0.6031921023216258 0.0
C C 0.7511200337690869 0.7125586381035027 0.6470965326030985 0.0
C C 0.5740427745177008 0.7520994806447446 0.6665644453986759 0.0
C C 0.5532044776724692 0.7102973407080542 0.622948643555912 0.0
H H 0.4855544776724692 0.7256673407080542 0.630088643555912 0.0
C C 0.5724574767237423 0.6245773864353537 0.7580049377968032 0.0
H H 0.5195874767237423 0.6003373864353536 0.7845349377968034 0.0
C C 0.6042795537721918 0.6169408650388449 0.6206214818882967 0.0
C C 0.6081243893071747 0.5623485008700144 0.6612075925835362 0.0
C C 0.7844165473890377 0.5841993208929946 0.7022916423582658 0.0
C C 0.8340340271437564 0.4779431725498708 0.7062682831418728 0.0
C C 0.8441929123060246 0.44772286812701884 0.8328664911296869 0.0
H H 0.8536129123060245 0.4809728681270189 0.874376491129687 0.0
C C 1.0426687362274674 0.3726936112408658 0.9062762568066145 0.0
H H 1.0823517362274675 0.3653036112408658 0.9666602568066144 0.0
C C 0.7938841891128685 0.37012840189004964 0.7348988841010152 0.0
H H 0.7801941891128685 0.33146840189004967 0.7543888841010151 0.0
C C 0.7736446420853261 0.3758004364720056 0.6497761835864975 0.0
C C 0.7594178824768044 0.4303148754105409 0.617262405425333 0.0
C C 0.730472089944746 0.4874960265493901 0.5214236887407987 0.0
H H 0.7212020899447459 0.5261560265493901 0.4999536887407987 0.0
C C 0.6614624614600116 0.4016570701881238 0.4936043332968557 0.0
H H 0.6218024614600116 0.40601707018812383 0.43224433329685574 0.0
C C 0.6626313467105759 0.3699935448902694 0.5215186413536166 0.0
H H 0.6585413467105757 0.34153354489026944 0.46863864135361655 0.0
N N 0.716788258247904 1.0764836361656691 0.6490231079489864 0.0
N N 0.6865799237415546 0.843805739152139 0.5650539464430996 0.0
N N 0.8008466531600832 0.5451827220201518 0.6755657295587262 0.0
N N 0.7419180901443888 0.33885808146616336 0.5754867467455009 0.0
O O 0.5446566631328118 1.180751494613172 0.5726805222083831 0.0
O O 0.6073801402795624 1.2090102860109044 0.6033622950776795 0.0
O O 0.78442097116998 1.1309299556125962 0.48968888773955216 0.0
O O 0.8296712781554928 1.2260970280664962 0.5166959980382312 0.0
O O 0.7445089307914075 1.1145716411823028 0.8350061970838273 0.0
O O 0.7464390123631705 1.2113767127227466 0.7823663414606009 0.0
O O 0.8597202158965754 1.1130722211095545 0.6447231892948154 0.0
O O 0.9409906070186034 1.1886910848768029 0.6720329414890887 0.0
O O 0.8599467688598049 0.8686988718218573 0.6002405353662826 0.0
O O 0.5139153697345071 0.8334451008335825 0.6574128179183771 0.0
O O 0.9097012883550338 0.5511611880314049 0.5863509171238711 0.0
O O 0.5263367018326086 0.5233994901569322 0.7159084351329426 0.0
Zn Zn 0.7918541384915859 1.257571096829043 0.682575927243843 0.0
Zn Zn 0.6898492889594037 1.118092277237298 0.6451853412201024 0.0
C C -0.5548430363712648 1.6618008190319253 -0.6327679476787316 0.0
C C -0.4438881311658662 1.71250291114093 -0.6000983632724614 0.0
C C -0.3851995241868038 1.6379246526380509 -0.6263896107242684 0.0
H H -0.41854952418680386 1.601494652638051 -0.6238396107242683 0.0
C C -0.2663821628591936 1.6694536097870323 -0.6643999660909355 0.0
C C -0.24598213182822282 1.7107719835698911 -0.7047971102328631 0.0
C C -0.28972361030493093 1.7817106567867538 -0.6278580640632089 0.0
H H -0.25947361030493094 1.8188806567867535 -0.6303180640632089 0.0
C C -0.35788846390140366 1.7684267117216659 -0.6304213178895618 0.0
H H -0.4031384639014036 1.800496711721666 -0.6290713178895618 0.0
C C -0.2163336505096238 1.6353062945070969 -0.6238487178656124 0.0
H H -0.2426736505096238 1.597476294507097 -0.6157887178656125 0.0
C C -0.10810947080781143 1.6117078168254881 -0.6349233555135875 0.0
H H -0.06555947080781145 1.5788678168254884 -0.6456733555135874 0.0
C C 0.0023121933628076356 1.6751710568526381 -0.7209205866030008 0.0
C C -0.08908817676225926 1.7115436446018346 -0.6805833397415179 0.0
H H -0.06163817676225928 1.7494136446018345 -0.6783333397415178 0.0
C C -0.7047327725452367 1.6737051217029617 -0.4477354863414311 0.0
C C -0.7043456304253611 1.6713463423837402 -0.8665512877756735 0.0
C C -0.7633696939530443 1.72870543785446 -0.9626918009490418 0.0
C C -0.7288461512576235 1.6197136201743865 -1.023224442537766 0.0
H H -0.7302961512576235 1.5818836201743867 -0.995274442537766 0.0
C C -0.7408765117066202 1.6750641025545374 -1.0847788608213087 0.0
C C -0.6845391834815718 1.7026260850440758 -1.1708596033232561 0.0
C C -0.8030668352247128 1.7469795569516842 -1.1340727665956154 0.0
H H -0.8213168352247129 1.7835595569516842 -1.1609227665956154 0.0
C C -0.7344853206423028 1.7789022893123816 -0.9820006955009289 0.0
H H -0.7072353206423028 1.8117722893123818 -0.9479506955009289 0.0
C C -0.7192980966344039 1.6043682583313414 -1.1862562676649275 0.0
H H -0.7313380966344039 1.5680382583313413 -1.1548062676649276 0.0
C C -0.7029431274386074 1.5973535245850026 -1.2824631556676425 0.0
H H -0.7011731274386074 1.5636235245850025 -1.3240031556676426 0.0
C C -0.7437262272203099 1.6664765412686382 -1.3552594581938624 0.0
C C -0.6933171534653905 1.701354035962719 -1.3022589023186277 0.0
H H -0.7070671534653904 1.7374240359627189 -1.3339189023186278 0.0
C C -0.8302840725471692 1.7113810442631965 -0.6966315039742577 0.0
C C -0.7566651879191905 1.4926947206636454 -0.7871326844331841 0.0
H H -0.7809051879191906 1.5226647206636454 -0.8306726844331841 0.0
C C -0.6561245998815873 1.4502529292927981 -0.8258225575958226 0.0
H H -0.6760545998815872 1.4419129292927981 -0.8948625575958226 0.0
C C -0.8765744267895299 1.4340372953423859 -0.7247601405576921 0.0
H H -0.8994144267895301 1.3959072953423861 -0.7377001405576921 0.0
C C -0.6953117143093803 1.4526819496381287 -0.5858931632366511 0.0
C C -0.6676851297667001 1.5313379436170425 -0.6149932570597099 0.0
C C -0.6099311595703367 1.548360356533526 -0.5774076379922553 0.0
H H -0.5884811595703369 1.586930356533526 -0.5660476379922553 0.0
C C -0.5910080350320048 1.4602488568428418 -0.4561153626998064 0.0
H H -0.5646380350320049 1.4732088568428416 -0.3915453626998064 0.0
C C -0.5151942716792971 1.3782634750156064 -0.4647784918727408 0.0
H H -0.4829242716792971 1.3500234750156066 -0.4223184918727408 0.0
C C -0.6125467710315453 1.412852265668447 -0.5695878241392069 0.0
C C -0.5331543582031779 1.2695657120912711 -0.7090760832665877 0.0
C C -0.7552357840134929 1.3137593368077547 -0.6451649785847514 0.0
C C -0.8468249704082256 1.2457001641799779 -0.552365354452412 0.0
C C -0.9645904617600745 1.199446864100916 -0.5126831704934115 0.0
H H -1.0189204617600744 1.2199968641009156 -0.4799031704934115 0.0
C C -0.8378325148721038 1.2267275192803673 -0.6425816000211014 0.0
H H -0.9072625148721037 1.2145575192803673 -0.6522916000211013 0.0
C C -0.7755161820390967 1.160989430192681 -0.6168335617336619 0.0
C C -0.7151043866951796 1.154286491210281 -0.5819204159946724 0.0
C C -0.7002944166882037 1.2063677352871185 -0.599769820071073 0.0
C C -0.5368640373402461 1.2355576823546086 -0.6266336301069027 0.0
C C -0.45059378310680037 1.2266812131648082 -0.5880625731324516 0.0
H H -0.3829437831068004 1.2420512131648085 -0.5952025731324516 0.0
C C -0.5629119998171055 1.1392507410299797 -0.7419396305383353 0.0
H H -0.5100419998171055 1.1150107410299797 -0.7684696305383354 0.0
C C -0.5782730997198838 1.1135965892350355 -0.6317947553472901 0.0
C C -0.5926687520513865 1.0051249767343078 -0.7194128454873511 0.0
C C -0.9045325010232736 1.0642809881647914 -0.7008431412521252 0.0
C C -0.8140411508087816 0.9708228509919002 -0.7782817039433654 0.0
C C -0.8497279397604695 0.9682137831942638 -0.7758066159499987 0.0
H H -0.8591479397604694 1.001463783194264 -0.8173166159499988 0.0
C C -0.925658033357312 0.9351398588849104 -0.748376611209258 0.0
H H -0.965341033357312 0.9277498588849104 -0.808760611209258 0.0
C C -0.7724754019986683 0.8340661856477443 -0.745325874383531 0.0
H H -0.7587854019986683 0.7954061856477443 -0.7648158743835309 0.0
C C -0.782844161472134 0.8765686946580769 -0.6308200176826048 0.0
C C -0.8020945211027016 0.9464502389209465 -0.6068026284114095 0.0
C C -0.6767968285608809 0.9690996841033942 -0.5752552132997067 0.0
H H -0.6675268285608809 1.0077596841033942 -0.5537852132997068 0.0
C C -0.6897714319329201 0.8722537139401252 -0.4850125474354397 0.0
H H -0.65011143193292 0.8766137139401252 -0.42365254743543973 0.0
C C -0.7740015696402074 0.8554764741261254 -0.4818898839042774 0.0
H H -0.7699115696402072 0.8270164741261253 -0.4290098839042774 0.0
N N -0.7446190004759221 1.5522027163125247 -0.721830926780479 0.0
N N -0.6751620886862966 1.3251447049673142 -0.6015184430830536 0.0
N N -0.7632091110174829 1.0741191183670655 -0.6487637088224936 0.0
N N -0.7453830957022396 0.8443483716198963 -0.5346550374630322 0.0
O O -0.5885875067108014 1.6192621748132514 -0.6890241413100752 0.0
O O -0.586346285258009 1.7729867507458563 -0.6075410129628189 0.0
O O -0.7852913000736552 1.6194003115824034 -0.4745504826792019 0.0
O O -0.8067455057874363 1.7238480830671261 -0.507327628065114 0.0
O O -0.8524258600471852 1.6762322013153717 -0.8568840121646993 0.0
O O -0.7415197147732632 1.7423293568879716 -0.7978327398525616 0.0
O O -0.8575745723421404 1.626623630111896 -0.7511170121047521 0.0
O O -0.8713116737378909 1.6988862010939865 -0.6141610629112048 0.0
O O -0.8356096353025791 1.3253123021764956 -0.46573981829743155 0.0
O O -0.4854965154513698 1.311555276290917 -0.6785203494642338 0.0
O O -0.9374765307393256 1.078694127418736 -0.7053510955573712 0.0
O O -0.6459962070328916 1.0587322832265622 -0.7036483362805404 0.0
Zn Zn -0.7264331388870594 1.7354114664664526 -0.6594918596317644 0.0
Zn Zn -0.7781570508301013 1.6136571209278108 -0.6698065858446379 0.0
