_cell_length_a 13.6316
_cell_length_b 13.6316
_cell_length_c 7.968
_cell_angle_alpha 90.0
_cell_angle_beta 90.0
_cell_angle_gamma 90.0
_symmetry_space_group_name_H-M         'P 1'
_symmetry_Int_Tables_number            1
loop_
_symmetry_equiv_pos_as_xyz
   'x, y, z'
                         
loop_
_atom_site_label
_atom_site_type_symbol
_atom_site_fract_x 
_atom_site_fract_y
_atom_site_fract_z
_atom_site_charge
C C 0.5727463207761513 0.6694262859234185 0.15175871798006332 0.0
C C 0.533866994771037 0.7559367848227928 0.16254759517689743 0.0
C C 0.4067234291265647 0.2662188620639133 0.20584576744928734 0.0
C C 0.42924889046309805 0.1619276746313777 0.1835908783218094 0.0
C C 0.2947116653715481 0.5779433284012983 0.15602878963026884 0.0
C C 0.21451381796777902 0.5626735584991313 0.1477873628115455 0.0
C C 0.701178745052529 0.46695617479458057 0.12214968071549545 0.0
C C 0.8017410520412689 0.47958970982665056 0.10290050891616959 0.0
C C 0.43795899071222427 0.6839734192172608 0.8644518880386313 0.0
C C 0.4281709149179692 0.8152772108346193 0.9149356163249821 0.0
C C 0.5373595920937672 0.2676901868984425 0.9197821901289414 0.0
C C 0.5266991157088429 0.20274332293602118 0.8942469613404901 0.0
C C 0.6828465561828133 0.5248118448618707 0.919918120142291 0.0
C C 0.8298515124336148 0.5234041315015056 0.8584442555186527 0.0
C C 0.28369400252372656 0.48008956220657734 0.7900754184970243 0.0
C C 0.17686073020264165 0.45645807255734644 0.8744538103521 0.0
C C 0.4512379327629417 0.15947759285530858 -0.035829016343202395 0.0
C C 0.4734324740399184 0.05897257721657736 -0.03494653197231441 0.0
C C 0.5365591696638602 0.8497242979362244 -0.023505449113068566 0.0
C C 0.4747124880247976 0.9706793952153959 -0.04824367213065192 0.0
C C 0.823003716377064 0.509626024181945 -0.09989098777735166 0.0
C C 0.908071945034608 0.5107309520260606 -0.0377188550944759 0.0
C C 0.1740158778136981 0.4956756334221149 0.07783599701813078 0.0
C C 0.06318460989387603 0.48936324890526284 -0.0023486983561995904 0.0
H H 0.5962743207761513 0.6262162859234185 0.25972171798006327 0.0
H H 0.559656994771037 0.7937767848227928 0.27444559517689743 0.0
H H 0.38319542912656473 0.30942886206391335 0.3138087674492873 0.0
H H 0.403458890463098 0.12408867463137771 0.29548887832180937 0.0
H H 0.33792166537154816 0.6014713284012982 0.26399178963026876 0.0
H H 0.176674817967779 0.5884635584991312 0.2596853628115455 0.0
H H 0.657968745052529 0.4434281747945806 0.23011268071549543 0.0
H H 0.8395810520412689 0.4537997098266505 0.21479850891616958 0.0
H H 0.41443099071222433 0.6407634192172609 0.7564888880386312 0.0
H H 0.4023809149179692 0.8531172108346193 0.803037616324982 0.0
H H 0.5608875920937672 0.3109001868984425 0.8118191901289413 0.0
H H 0.5524891157088428 0.16490432293602117 0.78234896134049 0.0
H H 0.6396365561828133 0.5483398448618707 0.8119551201422909 0.0
H H 0.8676915124336148 0.5491941315015055 0.7465462555186525 0.0
H H 0.32690400252372664 0.4565615622065774 0.6821124184970242 0.0
H H 0.13902173020264166 0.43066807255734646 0.7625558103521 0.0
Cu Cu 0.4910985255030881 0.4736623226875059 0.0326154331697955 0.0
Si Si 0.5012743610653358 0.5129419716557205 0.5284127852652234 0.0
F F 0.5004587862761088 0.5104350594878572 0.6250829538994727 0.0
F F 0.5190761126898309 0.5331039809052293 0.24611055161056386 0.0
F F 0.5934007391455973 0.5670784120501271 0.48826081732836285 0.0
F F 0.4017150465662748 0.658837466858548 0.5135840950718441 0.0
F F 0.40344541859403354 0.38309406770136134 0.4399507111398534 0.0
F F 0.6186819787066229 0.3346865746682815 0.5079129436735379 0.0
N N 0.5281975193081525 0.3915856347916775 -0.020001663540223095 0.0
N N 0.49682428751526153 0.6507789433682998 -0.014835261628933607 0.0
N N 0.6704582374912359 0.49669208822339883 0.010980619404071388 0.0
N N 0.34851949991375586 0.49372123369209236 -0.048328231597090605 0.0
_cell_length_a 13.6316
_cell_length_b 13.6316
_cell_length_c 7.968
_cell_angle_alpha 90.0
_cell_angle_beta 90.0
_cell_angle_gamma 90.0
_symmetry_space_group_name_H-M         'P 1'
_symmetry_Int_Tables_number            1
loop_
_symmetry_equiv_pos_as_xyz
   'x, y, z'
                         
loop_
_atom_site_label
_atom_site_type_symbol
_atom_site_fract_x 
_atom_site_fract_y
_atom_site_fract_z
_atom_site_charge
C C 0.5544855355412982 0.7279317167649914 0.18042436750581142 0.0
C C 0.5224734398885142 0.782406416635227 0.14683778280912319 0.0
C C 0.47901591181589537 0.3204515592949606 0.13416172938732396 0.0
C C 0.4604556813417082 0.1931750475252491 0.12201091939783575 0.0
C C 0.24941393927403738 0.5416541641384209 0.05243871580642403 0.0
C C 0.1501341823492079 0.5497488060016718 0.14324828906321652 0.0
C C 0.7229996241613073 0.4385737270976283 0.07033156238162318 0.0
C C 0.8199309207642494 0.4945312401896067 0.05602515485423687 0.0
C C 0.49752267090441143 0.6918674605926923 0.9304310077346205 0.0
C C 0.463416199167399 0.7353986513952717 0.9374634793434421 0.0
C C 0.5161103189015582 0.2926243518728779 0.8730961238668498 0.0
C C 0.5135424876592127 0.21502566852584798 0.8427776952404634 0.0
C C 0.723080176613011 0.47940097046667096 0.8603554356615826 0.0
C C 0.7396080807485237 0.5156228113422593 0.9500750653561114 0.0
C C 0.308209495387763 0.45657919367697386 0.8039602220603558 0.0
C C 0.18805944635185098 0.5031072921547775 0.8070306345644424 0.0
C C 0.48133540708587547 0.17329004937405246 -0.0275238977812092 0.0
C C 0.4909378008500723 0.044199671633264756 0.021068369760909426 0.0
C C 0.5116292139620313 0.8057257511259979 0.04404839409171529 0.0
C C 0.5044429836971518 0.9123081498855962 0.0017211150504993207 0.0
C C 0.8553161404066478 0.4690225458307833 -0.02858161898022531 0.0
C C 0.9111052965278049 0.5873621753213523 -0.07395843850861189 0.0
C C 0.1353669989538796 0.4248514485153536 0.017042995997849735 0.0
C C 0.018813654822957614 0.5293805558982323 0.015998053141236597 0.0
H H 0.5780135355412982 0.6847217167649915 0.2883873675058114 0.0
H H 0.5482634398885142 0.820246416635227 0.2587357828091232 0.0
H H 0.4554879118158954 0.36366155929496063 0.2421247293873239 0.0
H H 0.4346656813417082 0.1553360475252491 0.23390891939783573 0.0
H H 0.29262393927403746 0.5651821641384209 0.160401715806424 0.0
H H 0.11229518234920785 0.5755388060016717 0.25514628906321646 0.0
H H 0.6797896241613073 0.4150457270976283 0.17829456238162314 0.0
H H 0.8577709207642494 0.46874124018960667 0.16792315485423687 0.0
H H 0.47399467090441144 0.6486574605926924 0.8224680077346205 0.0
H H 0.437626199167399 0.7732386513952717 0.825565479343442 0.0
H H 0.5396383189015581 0.33583435187287797 0.7651331238668497 0.0
H H 0.5393324876592127 0.177186668525848 0.7308796952404634 0.0
H H 0.6798701766130112 0.502928970466671 0.7523924356615824 0.0
H H 0.7774480807485237 0.5414128113422593 0.8381770653561114 0.0
H H 0.35141949538776307 0.4330511936769739 0.6959972220603557 0.0
H H 0.15022044635185097 0.4773172921547775 0.6951326345644423 0.0
Cu Cu 0.46727111149892686 0.5038685301917363 -0.021145712643011277 0.0
Si Si 0.4809666776050621 0.5054603159521041 0.48325943223217666 0.0
F F 0.5034240187403094 0.4863432082892117 0.7481664789611532 0.0
F F 0.4579518884922858 0.5430734601582266 0.22438926307427462 0.0
F F 0.5851973548738308 0.6017847170076656 0.5121832771150506 0.0
F F 0.41239759757904193 0.5596142922645454 0.4379120853862026 0.0
F F 0.4085653662552907 0.3862215311671036 0.4229339582516819 0.0
F F 0.5899739119099334 0.40980686432431573 0.5299116513746793 0.0
N N 0.46521189992202633 0.33897017235830335 0.01592449672663726 0.0
N N 0.48535725413844144 0.6731300175414827 0.0618504765384731 0.0
N N 0.6155482829423599 0.49329607236118567 -0.038411916081009724 0.0
N N 0.41426720705687214 0.5286072137615948 -0.047914383684233605 0.0
_cell_length_a 13.6316
_cell_length_b 13.6316
_cell_length_c 7.968
_cell_angle_alpha 90.0
_cell_angle_beta 90.0
_cell_angle_gamma 90.0
_symmetry_space_group_name_H-M         'P 1'
_symmetry_Int_Tables_number            1
loop_
_symmetry_equiv_pos_as_xyz
   'x, y, z'
                         
loop_
_atom_site_label
_atom_site_type_symbol
_atom_site_fract_x 
_atom_site_fract_y
_atom_site_fract_z
_atom_site_charge
C C 0.5029659786913687 0.6992352302268824 0.09642784088273776 0.0
C C 0.5724930797032957 0.8460478785019632 0.2353427444377279 0.0
C C 0.4494942935344508 0.35198529817911356 0.06713000635741366 0.0
C C 0.46015992454936966 0.2052836944450122 0.11032508802598842 0.0
C C 0.24999838866066615 0.5758413948313557 0.1421031616154618 0.0
C C 0.21131733282021925 0.47718494605389733 0.127286944217735 0.0
C C 0.6959949897078783 0.5024097743992505 0.2091186235878305 0.0
C C 0.8071159259103412 0.4772104279994329 0.133030954530336 0.0
C C 0.4934734823719276 0.6915094889874783 0.9127439131236822 0.0
C C 0.44603625425893484 0.8338347462002078 0.8420328337816759 0.0
C C 0.5458971937506201 0.3529725962475164 0.878357968793557 0.0
C C 0.4870914277819881 0.17768219215829442 0.909076687531386 0.0
C C 0.6631212648052646 0.4983480253141964 0.84395785206951 0.0
C C 0.7421319412690139 0.4899972652055562 0.9808344407931291 0.0
C C 0.29463771663634647 0.48221902816325807 0.8498018958507253 0.0
C C 0.18219175017592096 0.5038696295015952 0.8770360914532486 0.0
C C 0.4665710890972702 0.08333921051446437 -0.040246123516584534 0.0
C C 0.4503449259647307 0.06430820418327646 -0.04963586496789771 0.0
C C 0.48257665673919453 0.8400686748255438 -0.008444448560813203 0.0
C C 0.4632782314711699 0.9663106466803749 -0.02117296965880524 0.0
C C 0.8212961016461491 0.48434440521130406 0.12138923637414437 0.0
C C 0.9438738400140262 0.5458748974847942 0.050030501189873525 0.0
C C 0.21655220721549567 0.5220066987835285 0.011208265684069635 0.0
C C 0.07285789479265645 0.5281069701812177 -0.05864567700924145 0.0
H H 0.5264939786913687 0.6560252302268824 0.20439084088273773 0.0
H H 0.5982830797032956 0.8838878785019632 0.34724074443772784 0.0
H H 0.4259662935344508 0.3951952981791136 0.17509300635741365 0.0
H H 0.4343699245493696 0.16744469444501223 0.2222230880259884 0.0
H H 0.2932083886606662 0.5993693948313557 0.2500661616154618 0.0
H H 0.17347833282021927 0.5029749460538973 0.239184944217735 0.0
H H 0.6527849897078783 0.4788817743992505 0.3170816235878305 0.0
H H 0.8449559259103412 0.4514204279994329 0.244928954530336 0.0
H H 0.4699454823719277 0.6482994889874784 0.8047809131236822 0.0
H H 0.42024625425893486 0.8716747462002078 0.7301348337816759 0.0
H H 0.5694251937506201 0.3961825962475165 0.7703949687935568 0.0
H H 0.5128814277819881 0.13984319215829444 0.797178687531386 0.0
H H 0.6199112648052646 0.5218760253141964 0.7359948520695099 0.0
H H 0.7799719412690139 0.5157872652055563 0.868936440793129 0.0
H H 0.33784771663634655 0.45869102816325813 0.7418388958507252 0.0
H H 0.14435275017592097 0.47807962950159516 0.7651380914532485 0.0
Cu Cu 0.49475072333515835 0.5194685745267008 0.007976503317555663 0.0
Si Si 0.48758826708469044 0.493828041264566 0.47857667310817936 0.0
F F 0.508289388847575 0.5197771851353699 0.6838889097255242 0.0
F F 0.49367488188047826 0.48233196165611225 0.31507398855645374 0.0
F F 0.5454574820562554 0.5987231621618605 0.5324362343921619 0.0
F F 0.40253401662867094 0.5726778652332442 0.5448330524081237 0.0
F F 0.38733805167957536 0.3729992224356084 0.5131202836221437 0.0
F F 0.5689407443912924 0.4555634141622848 0.5438639679151444 0.0
N N 0.5307065626508638 0.37580302278553385 0.01126175594726982 0.0
N N 0.5300226860832123 0.6474894463482417 -0.011954936691847731 0.0
N N 0.629445220642944 0.4770869361269983 0.031354148687595076 0.0
N N 0.3163625026298162 0.5335152433683352 0.06065709188772203 0.0
_cell_length_a 13.6316
_cell_length_b 13.6316
_cell_length_c 7.968
_cell_angle_alpha 90.0
_cell_angle_beta 90.0
_cell_angle_gamma 90.0
_symmetry_space_group_name_H-M         'P 1'
_symmetry_Int_Tables_number            1
loop_
_symmetry_equiv_pos_as_xyz
   'x, y, z'
                         
loop_
_atom_site_label
_atom_site_type_symbol
_atom_site_fract_x 
_atom_site_fract_y
_atom_site_fract_z
_atom_site_charge
C C 0.5746347533770847 0.7000284617387971 0.11635325455563836 0.0
C C 0.5060942301610273 0.8201590959466186 0.19696947409524893 0.0
C C 0.46327012689477987 0.29594830715288667 0.10231428875227333 0.0
C C 0.40601736313035514 0.18589377778727847 0.09829928230704035 0.0
C C 0.2722225061468928 0.5492104849603667 0.14903350895510065 0.0
C C 0.21626381173933523 0.4961822521224114 0.1287755584581621 0.0
C C 0.6638706080499379 0.44922187716397377 0.14719036630303 0.0
C C 0.8250589985079585 0.4567767700344172 0.027278792051505556 0.0
C C 0.4469128544218921 0.7417496857412818 0.8474530547636817 0.0
C C 0.4684970974087779 0.8313188396047011 0.8901023978395558 0.0
C C 0.516798897006745 0.22833750751198614 0.793483823669695 0.0
C C 0.524207001133262 0.23905315539019995 0.8885412040437883 0.0
C C 0.6381536485488184 0.5113887254110128 0.8671671577199704 0.0
C C 0.7777177101329371 0.529864559646103 0.9385040559019409 0.0
C C 0.32765463765497116 0.39857106576753604 0.929900566018049 0.0
C C 0.1609586733715161 0.4533476985734282 0.8490654778147204 0.0
C C 0.5034441231234446 0.14004883985420372 -0.018758919808530568 0.0
C C 0.5273803476228298 -0.0313224304268616 0.00524817800941216 0.0
C C 0.5102728515918655 0.8626633540788455 -0.017810594538572255 0.0
C C 0.5214495849923946 0.9984002826918515 -0.0633135914107178 0.0
C C 0.8743787109337194 0.4691979852072971 0.053615434470201194 0.0
C C 0.925892201597465 0.4582337104727233 0.021610244600510236 0.0
C C 0.15377646072852102 0.46239786608199046 0.006033217541521665 0.0
C C 0.0676645156372108 0.47776661007395044 -0.04020606249052959 0.0
H H 0.5981627533770847 0.6568184617387971 0.22431625455563833 0.0
H H 0.5318842301610273 0.8579990959466186 0.3088674740952489 0.0
H H 0.4397421268947799 0.3391583071528867 0.21027728875227328 0.0
H H 0.3802273631303551 0.1480547777872785 0.21019728230704032 0.0
H H 0.31543250614689294 0.5727384849603667 0.2569965089551006 0.0
H H 0.17842481173933525 0.5219722521224114 0.24067355845816207 0.0
H H 0.620660608049938 0.4256938771639738 0.25515336630303 0.0
H H 0.8628989985079585 0.43098677003441715 0.13917679205150554 0.0
H H 0.4233848544218922 0.6985396857412818 0.7394900547636817 0.0
H H 0.44270709740877784 0.8691588396047011 0.7782043978395558 0.0
H H 0.5403268970067449 0.2715475075119862 0.685520823669695 0.0
H H 0.549997001133262 0.20121415539019996 0.7766432040437883 0.0
H H 0.5949436485488184 0.5349167254110128 0.7592041577199704 0.0
H H 0.8155577101329371 0.555654559646103 0.8266060559019408 0.0
H H 0.3708646376549712 0.37504306576753604 0.821937566018049 0.0
H H 0.1231196733715161 0.42755769857342824 0.7371674778147204 0.0
Cu Cu 0.4487105521537924 0.5066691585810259 -0.03433346512656304 0.0
Si Si 0.4992886097357976 0.4881106730403624 0.5194063522955654 0.0
F F 0.49679635993927806 0.5203870346815038 0.6680135304974337 0.0
F F 0.49169201548078323 0.4952882760832259 0.29423661182301053 0.0
F F 0.5499373581453361 0.6242410172484834 0.39145517119976636 0.0
F F 0.4435461009331152 0.5908435005621108 0.5279897122552297 0.0
F F 0.4208409831247088 0.3876391713172838 0.4967701914346817 0.0
F F 0.5749176705333355 0.4239596586573393 0.5296076881942973 0.0
N N 0.5353202238756045 0.30889981942682737 -0.031500730776552105 0.0
N N 0.49868863540808467 0.66721586920956 0.024015385543563934 0.0
N N 0.6148553597939147 0.5167892818645721 0.015103009702595023 0.0
N N 0.38943047292795735 0.4996453214754529 0.058886557349904854 0.0
_cell_length_a 13.6316
_cell_length_b 13.6316
_cell_length_c 7.968
_cell_angle_alpha 90.0
_cell_angle_beta 90.0
_cell_angle_gamma 90.0
_symmetry_space_group_name_H-M         'P 1'
_symmetry_Int_Tables_number            1
loop_
_symmetry_equiv_pos_as_xyz
   'x, y, z'
                         
loop_
_atom_site_label
_atom_site_type_symbol
_atom_site_fract_x 
_atom_site_fract_y
_atom_site_fract_z
_atom_site_charge
C C 0.503080224674047 0.6771968027755371 0.18648665114147558 0.0
C C 0.5670694631299033 0.8111975163117213 0.07889926196633391 0.0
C C 0.4650799465461 0.3069702780996071 0.2614410692567018 0.0
C C 0.47322016876298534 0.1697653399862611 0.14690001374251843 0.0
C C 0.31965308778318563 0.5363029419391828 0.0958298602325754 0.0
C C 0.21851803893846142 0.48106773906854977 0.06543496702426028 0.0
C C 0.6702924087594544 0.44683883964991694 0.11037383689519628 0.0
C C 0.789920259407402 0.3866651338512209 0.18618181724317137 0.0
C C 0.46932341225763485 0.7300309523465729 0.8951721077881803 0.0
C C 0.43401392597796945 0.8216441416243168 0.8601887207407378 0.0
C C 0.5150196868220414 0.26478403589254323 0.8796062775907716 0.0
C C 0.5591526904360207 0.22357162366588404 0.9281615211842694 0.0
C C 0.7109348753018253 0.4983133618119536 0.8830439281958896 0.0
C C 0.8390206704530966 0.5474579975253016 0.7930318255190069 0.0
C C 0.3350683987422737 0.4408412784388042 0.9210408349791317 0.0
C C 0.27611472915848206 0.4575876727664223 0.8151412046912194 0.0
C C 0.5209831958831067 0.14745311369495745 -0.0023160756677940144 0.0
C C 0.4671504774442674 -0.00230849562636689 -0.0021594901184072168 0.0
C C 0.5393744725770583 0.8689965082220121 -0.04877290123930089 0.0
C C 0.5150952063335124 0.9485625303979311 -0.05453302726612834 0.0
C C 0.7923160834413131 0.42214324461048275 0.029905605078878 0.0
C C 0.9690834588993387 0.44872143266834125 0.05728475121710011 0.0
C C 0.18832525018156102 0.4785869216360117 -0.040436340992304816 0.0
C C 0.045600932049342846 0.5012544112378972 0.04969048540645733 0.0
H H 0.526608224674047 0.6339868027755371 0.29444965114147553 0.0
H H 0.5928594631299032 0.8490375163117213 0.1907972619663339 0.0
H H 0.4415519465461 0.3501802780996071 0.3694040692567018 0.0
H H 0.4474301687629853 0.1319263399862611 0.25879801374251843 0.0
H H 0.3628630877831857 0.5598309419391828 0.2037928602325754 0.0
H H 0.1806790389384614 0.5068577390685497 0.17733296702426024 0.0
H H 0.6270824087594544 0.42331083964991695 0.21833683689519626 0.0
H H 0.8277602594074019 0.3608751338512209 0.2980798172431713 0.0
H H 0.44579541225763486 0.6868209523465729 0.7872091077881802 0.0
H H 0.40822392597796947 0.8594841416243167 0.7482907207407378 0.0
H H 0.5385476868220413 0.30799403589254326 0.7716432775907714 0.0
H H 0.5849426904360207 0.18573262366588403 0.8162635211842694 0.0
H H 0.6677248753018253 0.5218413618119536 0.7750809281958895 0.0
H H 0.8768606704530966 0.5732479975253015 0.6811338255190068 0.0
H H 0.3782783987422737 0.4173132784388042 0.8130778349791316 0.0
H H 0.2382757291584821 0.43179767276642234 0.7032432046912194 0.0
Cu Cu 0.5019305956671274 0.48340839911569033 0.0294021240745273 0.0
Si Si 0.49271868058094753 0.5231513668913883 0.5150283421903887 0.0
F F 0.48990119318434494 0.5037655620192087 0.6033054154851061 0.0
F F 0.5059064592430879 0.4796755612552465 0.3123978442076501 0.0
F F 0.5897588354001416 0.5802103375174718 0.5238135181332991 0.0
F F 0.42673468379188434 0.5912675210127695 0.5062657243535481 0.0
F F 0.44226248997646955 0.39113972529887747 0.5824829728447959 0.0
F F 0.6504833574533411 0.4246076592708873 0.4606530223274817 0.0
N N 0.5090490609684952 0.34265349521072086 0.041591629991772266 0.0
N N 0.4337148868796862 0.675117645879598 0.010500053099115907 0.0
N N 0.6621449348920272 0.5077837962686637 0.0019191579072118353 0.0
N N 0.3375380207273924 0.4586049015934157 0.01988043224541965 0.0
_cell_length_a 13.6316
_cell_length_b 13.6316
_cell_length_c 7.968
_cell_angle_alpha 90.0
_cell_angle_beta 90.0
_cell_angle_gamma 90.0
_symmetry_space_group_name_H-M         'P 1'
_symmetry_Int_Tables_number            1
loop_
_symmetry_equiv_pos_as_xyz
   'x, y, z'
                         
loop_
_atom_site_label
_atom_site_type_symbol
_atom_site_fract_x 
_atom_site_fract_y
_atom_site_fract_z
_atom_site_charge
C C 0.4614080873797139 0.6649333144002603 0.1327959858931676 0.0
C C 0.5230300184982456 0.7655372326918981 0.16253881960031033 0.0
C C 0.47117099028180515 0.3098557052054553 0.147893205780228 0.0
C C 0.5053541962440351 0.19717260768649136 0.16456719344699616 0.0
C C 0.348860898168831 0.5360881028189491 0.14810252053839187 0.0
C C 0.2006716224603325 0.5576307131998088 0.11803508854660064 0.0
C C 0.6581793771163521 0.432483615316581 0.14676632595618355 0.0
C C 0.8059337236076016 0.5231568893424496 0.06462866039291174 0.0
C C 0.4754655552379245 0.6707520940491254 0.8346219431451718 0.0
C C 0.44982284895869523 0.8456206350312718 0.9828688673619851 0.0
C C 0.5165518753196201 0.37721522486244063 0.7883025647138512 0.0
C C 0.49462147093721787 0.16030895021337044 0.7783977635269193 0.0
C C 0.7022856728723749 0.5552624242754629 0.8519540604005658 0.0
C C 0.7748103131273935 0.5274195204872848 0.76656443659088 0.0
C C 0.2937543202532174 0.4451520517943005 0.9097977955991973 0.0
C C 0.26038065465845733 0.43274777510802775 0.8357386477935378 0.0
C C 0.4498822349843373 0.1659325552582688 -0.02786654442786345 0.0
C C 0.49736534156720474 0.010530435698984065 -0.03034001478761441 0.0
C C 0.47743640542000376 0.9151337689490671 -0.007488652693798751 0.0
C C 0.4899392629753242 0.9764508233207905 -0.016562993349108296 0.0
C C 0.8963272274080718 0.5239493483289176 0.028761861680089162 0.0
C C 0.9631693505866162 0.47346646493758743 0.09523485647110827 0.0
C C 0.14404514782408312 0.46861147396696723 0.017995963036218202 0.0
C C -0.012150829347120487 0.4306136126485955 0.067258435830097 0.0
H H 0.48493608737971394 0.6217233144002603 0.24075898589316758 0.0
H H 0.5488200184982456 0.803377232691898 0.27443681960031024 0.0
H H 0.44764299028180515 0.3530657052054553 0.25585620578022794 0.0
H H 0.479564196244035 0.15933360768649138 0.27646519344699616 0.0
H H 0.39207089816883106 0.5596161028189491 0.2560655205383918 0.0
H H 0.1628326224603325 0.5834207131998088 0.2299330885466006 0.0
H H 0.6149693771163521 0.4089556153165811 0.2547293259561835 0.0
H H 0.8437737236076016 0.4973668893424496 0.17652666039291173 0.0
H H 0.45193755523792456 0.6275420940491254 0.7266589431451718 0.0
H H 0.4240328489586952 0.8834606350312718 0.870970867361985 0.0
H H 0.5400798753196201 0.4204252248624407 0.6803395647138512 0.0
H H 0.5204114709372178 0.12246995021337044 0.6664997635269192 0.0
H H 0.6590756728723749 0.5787904242754629 0.7439910604005656 0.0
H H 0.8126503131273934 0.5532095204872848 0.65466643659088 0.0
H H 0.33696432025321743 0.4216240517943005 0.8018347955991971 0.0
H H 0.22254165465845735 0.4069577751080278 0.7238406477935377 0.0
Cu Cu 0.507975632842373 0.49722303255471806 0.032796221338782044 0.0
Si Si 0.5099809466339228 0.49852139021404307 0.49161188171126735 0.0
F F 0.4789356704210442 0.4511788367510871 0.6961934572327456 0.0
F F 0.5636668108330168 0.5227445941645318 0.28258934268196684 0.0
F F 0.658062923285687 0.5833606479710858 0.5182605506204956 0.0
F F 0.39276318191622667 0.5628845502308254 0.4987031880139859 0.0
F F 0.41329471832830345 0.41321060704407075 0.523060237763449 0.0
F F 0.5689330938147629 0.43257284665304613 0.5222612690419508 0.0
N N 0.5020823240600483 0.3823634785813838 -0.0319389379177971 0.0
N N 0.5178611374993299 0.6430922656846015 -0.03487984916140255 0.0
N N 0.6738079795568035 0.5092121313693876 -0.10692458780991541 0.0
N N 0.37448259870509865 0.5071142618616222 0.050420041480270406 0.0
_cell_length_a 13.6316
_cell_length_b 13.6316
_cell_length_c 7.968
_cell_angle_alpha 90.0
_cell_angle_beta 90.0
_cell_angle_gamma 90.0
_symmetry_space_group_name_H-M         'P 1'
_symmetry_Int_Tables_number            1
loop_
_symmetry_equiv_pos_as_xyz
   'x, y, z'
                         
loop_
_atom_site_label
_atom_site_type_symbol
_atom_site_fract_x 
_atom_site_fract_y
_atom_site_fract_z
_atom_site_charge
C C 0.4831402526187212 0.7479088315722731 0.09325891589914133 0.0
C C 0.48364377512964407 0.7839883824620804 0.1879340762305388 0.0
C C 0.42975768451778107 0.27271184415479244 0.0851713178987633 0.0
C C 0.4421678313467567 0.18503528362614505 0.07927344215980985 0.0
C C 0.30182832906154866 0.5313071025550391 0.07975740603324331 0.0
C C 0.21915529203354306 0.5916381971293919 0.05555468263995161 0.0
C C 0.7289952956899867 0.45793880504953355 0.10843389969572832 0.0
C C 0.8269286384232684 0.5311805915809396 0.15922715646608654 0.0
C C 0.5403490841185398 0.7079151822173037 0.817536060041066 0.0
C C 0.45297368852217856 0.8330568663937477 0.8414519067416362 0.0
C C 0.517168832523655 0.2588652863491813 0.879947141653886 0.0
C C 0.5413731226124253 0.24626777495786203 0.8574634223214754 0.0
C C 0.6913087717780286 0.5088262639537717 0.9118278505952501 0.0
C C 0.7706422412204154 0.5364141687946137 0.7802692767651854 0.0
C C 0.30549392184648366 0.4308491818931281 0.8998888672840767 0.0
C C 0.1849528043561577 0.4801967543161039 0.7934638092232221 0.0
C C 0.5323854842458701 0.10400070648706658 -0.0016597115418202795 0.0
C C 0.44885803507551164 0.106275762255089 -0.00417015243554971 0.0
C C 0.4819576836415864 0.7763601925474158 0.0521966399403363 0.0
C C 0.438622896951212 0.9790857842428341 -0.007983795355057567 0.0
C C 0.8518982592172509 0.5072097804793075 -0.046372070680567326 0.0
C C 1.0301781523299933 0.49002584096934526 0.03578654786626609 0.0
C C 0.11227424960306705 0.5151775063510041 0.015837224256996664 0.0
C C 0.06543438547009928 0.47668835277522675 0.03536427123698618 0.0
H H 0.5066682526187212 0.7046988315722731 0.2012219158991413 0.0
H H 0.5094337751296442 0.8218283824620803 0.29983207623053876 0.0
H H 0.4062296845177811 0.31592184415479246 0.19313431789876326 0.0
H H 0.4163778313467566 0.14719628362614504 0.19117144215980983 0.0
H H 0.34503832906154874 0.5548351025550391 0.18772040603324328 0.0
H H 0.18131629203354305 0.6174281971293919 0.1674526826399516 0.0
H H 0.6857852956899867 0.4344108050495336 0.21639689969572828 0.0
H H 0.8647686384232683 0.5053905915809396 0.27112515646608654 0.0
H H 0.5168210841185398 0.6647051822173037 0.709573060041066 0.0
H H 0.4271836885221786 0.8708968663937476 0.7295539067416361 0.0
H H 0.540696832523655 0.3020752863491814 0.7719841416538858 0.0
H H 0.5671631226124252 0.20842877495786205 0.7455654223214754 0.0
H H 0.6480987717780287 0.5323542639537717 0.8038648505952499 0.0
H H 0.8084822412204153 0.5622041687946137 0.6683712767651854 0.0
H H 0.3487039218464837 0.4073211818931281 0.7919258672840765 0.0
H H 0.14711380435615773 0.45440675431610394 0.6815658092232221 0.0
Cu Cu 0.45003864959872886 0.5187350450078189 0.020167437645442668 0.0
Si Si 0.5122168941068874 0.5140718815937351 0.4966021516958949 0.0
F F 0.48882925476302014 0.5074559521375589 0.6798360200786112 0.0
F F 0.5203173928238232 0.5174521414831864 0.26218082823931765 0.0
F F 0.6162149164595081 0.5943238555546427 0.5389966526063436 0.0
F F 0.3693610703837639 0.6352223720018497 0.49302958602858654 0.0
F F 0.4316521874669428 0.446868040204435 0.4494560914513035 0.0
F F 0.5893170686318528 0.42979411221688435 0.4805304704459897 0.0
N N 0.4896026009070251 0.3787631453176761 0.024325490309847132 0.0
N N 0.5015131276153826 0.5989644478872741 0.02761884777703287 0.0
N N 0.6181386260764241 0.5112809825909477 0.04590871976233403 0.0
N N 0.3527178401221107 0.4818625751482185 -0.011354688937410049 0.0
