_cell_length_a 19.5206
_cell_length_b 17.9856
_cell_length_c 12.6054
_cell_angle_alpha 90.0
_cell_angle_beta 99.0355
_cell_angle_gamma 90.0
_symmetry_space_group_name_H-M         'P 1'
_symmetry_Int_Tables_number            1
loop_
_symmetry_equiv_pos_as_xyz
   'x, y, z'
                         
loop_
_atom_site_label
_atom_site_type_symbol
_atom_site_fract_x 
_atom_site_fract_y
_atom_site_fract_z
_atom_site_charge
C C 0.24078101748045935 0.8987477009438207 0.6012666946842435 0.0
H H 0.23966101748045934 0.9493177009438206 0.5863366946842435 0.0
C C 0.22502042311708564 0.8323622065330757 0.5407900606596978 0.0
H H 0.22630042311708568 0.8510322065330759 0.4722500606596978 0.0
C C 0.2520020780933845 0.7661678250138515 0.5410849623193479 0.0
C C 0.25700285801183814 0.7510191948228623 0.660519800648655 0.0
H H 0.25957285801183816 0.7005891948228623 0.677279800648655 0.0
C C 0.22626967042215546 0.8228938022554225 0.7028250576231712 0.0
H H 0.22704967042215543 0.8057738022554225 0.7725950576231712 0.0
C C 0.35754774364994313 0.9446877237875964 1.014675838684496 0.0
H H 0.33112774364994313 0.9120577237875965 1.048845838684496 0.0
C C 0.4104186515694622 0.9455150317619273 0.9964234720556884 0.0
H H 0.4292986515694622 0.9185850317619273 1.056983472055688 0.0
C C 0.44999800120375455 1.010630115961537 0.9882999517011732 0.0
C C 0.4356914315537795 1.0236791817932158 0.8728571040211 0.0
H H 0.46146143155377933 1.0558491817932154 0.8369171040210999 0.0
C C 0.3533951882149092 1.0360179484980816 0.8806356322922588 0.0
H H 0.3331751882149091 1.0623879484980816 0.8201956322922587 0.0
C C 0.15194905975815073 0.8804384377945115 1.0120370331691293 0.0
C C 0.10776784374383527 0.8555241815400189 1.0717925053391737 0.0
C C 0.08344562473391683 0.7964369466659227 1.0117388284967757 0.0
H H 0.0838256247339168 0.7825169466659226 0.9407088284967756 0.0
C C 0.033812736545662844 0.7715195809578632 1.053581495677931 0.0
H H 0.008192736545662839 0.7311995809578632 1.0227414956779313 0.0
C C 0.05285231935758631 0.78247752967749 1.1944936961436954 0.0
C C 0.07919018466222136 0.8218269118250275 1.1995583177242408 0.0
H H 0.07637018466222138 0.8368969118250275 1.2693283177242412 0.0
C C 0.11602564218766628 0.8839138529536233 1.1610024982505964 0.0
C C 0.16294595658085118 0.9424904064751013 1.2044373830764679 0.0
C C -0.007294225655873769 0.7333465883175659 1.229760536598038 0.0
C C -0.041240474142496236 0.6601680176947561 1.18137217922371 0.0
F F -0.11427849468639044 0.7234519597833581 1.1081791393086708 0.0
F F -0.04313258676101683 0.636904930665687 1.1148358360128368 0.0
F F -0.09534283631180995 0.6494223117922688 1.2351639731978739 0.0
N N 0.2381801416676923 0.8663350685450981 0.7421529484071863 0.0
N N 0.31561353151026844 0.9758619475823087 0.894270620521448 0.0
O O 0.18267657605311843 0.9870248646886551 1.0397793946301457 0.0
O O 0.18460495414185765 0.8742219329439511 0.923344784091257 0.0
O O 0.21800364968138577 0.9542567657224081 1.2524944130229283 0.0
O O 0.14482359482158416 0.9724269667714162 1.2417625336243117 0.0
Zn Zn 0.20329485525284188 0.9361830257947368 0.8394289420361934 0.0
C C -0.23444338297306738 0.8718222463330633 -0.08839009768449703 0.0
H H -0.23332338297306737 0.922392246333063 -0.07346009768449704 0.0
C C -0.24985266223079658 0.838785012790546 -0.029642681639367535 0.0
H H -0.2511326622307966 0.8574550127905461 0.03889731836063245 0.0
C C -0.25270798547674034 0.747185866434313 -0.023236534562083973 0.0
C C -0.26453262118533527 0.7564764551621359 -0.12682977888912575 0.0
H H -0.26710262118533523 0.7060464551621358 -0.14358977888912572 0.0
C C -0.22352521680311255 0.8029745080355861 -0.22439798986409118 0.0
H H -0.2243052168031125 0.785854508035586 -0.29416798986409115 0.0
C C -0.35689748425518597 0.9243630463310676 -0.49963490850260844 0.0
H H -0.33047748425518597 0.8917330463310676 -0.5338049085026085 0.0
C C -0.42937031717213586 0.9306102975192471 -0.4922428712304206 0.0
H H -0.4482503171721358 0.9036802975192469 -0.5528028712304206 0.0
C C -0.46434323558505874 0.9818825790760335 -0.49142597126037624 0.0
C C -0.4694584442869765 1.0377136839136165 -0.4354961287850392 0.0
H H -0.4952284442869764 1.0698836839136163 -0.39955612878503927 0.0
C C -0.3616153466711716 1.0343869811108108 -0.3384950943685844 0.0
H H -0.3413953466711716 1.0607569811108108 -0.2780550943685843 0.0
C C -0.16149364898937632 0.8813542554351028 -0.45822239074333615 0.0
C C -0.11394418105268521 0.840825922140058 -0.5592110853735542 0.0
C C -0.05834199676947804 0.77643656135539 -0.49258465213852587 0.0
H H -0.05872199676947802 0.76251656135539 -0.42155465213852583 0.0
C C -0.05006251328539473 0.7534303594507791 -0.5592755063120931 0.0
H H -0.024442513285394738 0.713110359450779 -0.528435506312093 0.0
C C -0.020551514903653038 0.7725588632618839 -0.6204097091943049 0.0
C C -0.08115713182268904 0.8564476872833748 -0.6923544494750289 0.0
H H -0.07833713182268905 0.8715176872833746 -0.7621244494750291 0.0
C C -0.10236046183034328 0.8757768856377157 -0.6378278493739481 0.0
C C -0.1759255817549427 0.9471162474477705 -0.7059162556222396 0.0
C C -0.003157808113004257 0.7190002185061906 -0.7746375822911407 0.0
C C 0.057240942523892765 0.680024344090764 -0.6727119397527243 0.0
F F 0.09961253093338533 0.6969620967099996 -0.6062053101007918 0.0
F F 0.0201906933553945 0.6226092528723601 -0.6491639879321426 0.0
F F 0.09839162793173173 0.6534871533433019 -0.7548344532523663 0.0
N N -0.24220526348235163 0.870626387604687 -0.22026856135977013 0.0
N N -0.3266931458243759 0.9617725014253529 -0.3996706887573236 0.0
O O -0.1622267219027816 0.9693490288972169 -0.4828000422843534 0.0
O O -0.16914743063308613 0.8509070068867769 -0.40408932287469007 0.0
O O -0.20874755870123918 0.9042375871972369 -0.7074553734290175 0.0
O O -0.15546492301741177 0.9992575259777866 -0.7659333164885187 0.0
Zn Zn -0.2097327523430043 0.9496553939217973 -0.31765253719168896 0.0
C C 0.7305298371481098 1.3945033747580178 0.5994484179880438 0.0
H H 0.7294098371481098 1.4450733747580178 0.5845184179880438 0.0
C C 0.7510262333149451 1.3587485531479953 0.521764192698636 0.0
H H 0.7523062333149451 1.3774185531479952 0.453224192698636 0.0
C C 0.7414431888638457 1.284905308437172 0.5373840678916822 0.0
C C 0.7483910951908413 1.2731303777741743 0.6556799521572335 0.0
H H 0.7509610951908413 1.2227003777741743 0.6724399521572335 0.0
C C 0.7362390864917913 1.3165455132270276 0.7153236799821183 0.0
H H 0.7370190864917913 1.2994255132270274 0.7850936799821183 0.0
C C 0.8661357052095932 1.425220808794684 0.9954808034855377 0.0
H H 0.839715705209593 1.3925908087946839 1.0296508034855376 0.0
C C 0.9412793912442707 1.4336193902549341 1.0244116857171934 0.0
H H 0.9601593912442706 1.4066893902549342 1.0849716857171932 0.0
C C 0.9733010687603472 1.4803385723956979 0.9816244337285406 0.0
C C 0.9307062872874151 1.535626077566599 0.890773327835236 0.0
H H 0.9564762872874153 1.5677960775665991 0.8548333278352359 0.0
C C 0.8690936501676915 1.5125599921759583 0.8457773569160073 0.0
H H 0.8488736501676915 1.538929992175958 0.7853373569160071 0.0
C C 0.6845899264870785 1.3980829212303134 1.0062220427980806 0.0
C C 0.6132624110769253 1.3479577246213303 1.0337843712557717 0.0
C C 0.5918485352203475 1.3014688463725268 1.0442893998204774 0.0
H H 0.5922285352203475 1.287548846372527 0.9732593998204774 0.0
C C 0.5382370616372918 1.25879542241011 1.062158505479785 0.0
H H 0.5126170616372918 1.2184754224101102 1.031318505479785 0.0
C C 0.5439401759516214 1.2670826631718943 1.192739384453054 0.0
C C 0.5906223593109156 1.3458533714144711 1.2163751984449847 0.0
H H 0.5878023593109156 1.360923371414471 1.2861451984449848 0.0
C C 0.606938099432631 1.3853190055728692 1.157791127303289 0.0
C C 0.6643177548251026 1.431453001958672 1.2087879726025816 0.0
C C 0.5076160806233673 1.2428343245150044 1.252755641781554 0.0
C C 0.45355071602857533 1.163754701014386 1.1967454532646071 0.0
F F 0.3965175185666752 1.2037767215232267 1.096909928979719 0.0
F F 0.49241827924873693 1.1145215814838363 1.1278093192406073 0.0
F F 0.39809386830800503 1.1654298176722255 1.253470788397892 0.0
N N 0.7326895660795171 1.3794737084286777 0.6860909633127469 0.0
N N 0.8273859843780818 1.482399092334866 0.8998505509891291 0.0
O O 0.6881550525576956 1.4647582212501324 1.0139503800030496 0.0
O O 0.6742650250896279 1.3680371839489844 0.9015746218816413 0.0
O O 0.7444206216655135 1.399198936251338 1.2060409852320886 0.0
O O 0.6534363131932791 1.4668187218901092 1.2462236151603445 0.0
Zn Zn 0.7325298711291247 1.44801875112007 0.8345066986595501 0.0
C C 0.24591127259701576 1.3961801151627442 -0.12443257518853755 0.0
H H 0.2470312725970158 1.4467501151627442 -0.10950257518853755 0.0
C C 0.24965721781252576 1.3734086202473614 -0.024394349518397147 0.0
H H 0.24837721781252578 1.3920786202473614 0.044145650481602836 0.0
C C 0.25391555046487224 1.282968220727296 -0.07232345962228685 0.0
C C 0.24872774855806115 1.2565079024958647 -0.11947659615698163 0.0
H H 0.2461577485580611 1.206077902495865 -0.1362365961569816 0.0
C C 0.274476127120391 1.3100966493108828 -0.238749041341216 0.0
H H 0.273696127120391 1.2929766493108825 -0.30851904134121594 0.0
C C 0.12549003685801388 1.453733982404411 -0.47855990090243766 0.0
H H 0.15191003685801388 1.421103982404411 -0.5127299009024378 0.0
C C 0.07016386702874948 1.4580470517801731 -0.5410813793056618 0.0
H H 0.05128386702874947 1.4311170517801732 -0.6016413793056617 0.0
C C 0.01931038338658196 1.488928921571626 -0.4596757074412014 0.0
C C 0.07473811992039078 1.5190653749438499 -0.39629046246532434 0.0
H H 0.04896811992039078 1.5512353749438494 -0.36035046246532443 0.0
C C 0.14177589114486894 1.5084101270380235 -0.3576508344108304 0.0
H H 0.16199589114486895 1.5347801270380232 -0.2972108344108303 0.0
C C 0.33321513894328925 1.4080904873340445 -0.5141133669390672 0.0
C C 0.3614582673005439 1.3706259439506576 -0.5508396569018666 0.0
C C 0.39462295038269596 1.2959223252526124 -0.5240323119761208 0.0
H H 0.39424295038269597 1.2820023252526127 -0.4530023119761207 0.0
C C 0.4586429349682547 1.259172913208243 -0.5453807392276043 0.0
H H 0.4842629349682548 1.218852913208243 -0.5145407392276043 0.0
C C 0.46897576955230047 1.2850677736641305 -0.6569307324874688 0.0
C C 0.4052016393703192 1.3312142173207022 -0.740424151614127 0.0
H H 0.4080216393703191 1.3462842173207021 -0.8101941516141271 0.0
C C 0.3538689722029106 1.3831994709362694 -0.674888164784056 0.0
C C 0.3280538554718847 1.4293576301868949 -0.73793299144487 0.0
C C 0.4949663042810106 1.221908137790114 -0.7418500768176323 0.0
C C 0.5487398054836954 1.1839063949940767 -0.6979227680120925 0.0
F F 0.5892145474109971 1.224282561954762 -0.6092481840306462 0.0
F F 0.517849744130951 1.1087309264248746 -0.617926474649744 0.0
F F 0.5795449960938548 1.15444579674673 -0.7439961937777693 0.0
N N 0.25541210027701666 1.3873078706388973 -0.21583375236714308 0.0
N N 0.18992715239722632 1.4713578814604371 -0.3803206466434735 0.0
O O 0.32744987147276344 1.4651825058284569 -0.5104755197192887 0.0
O O 0.29985244964829155 1.348524312392412 -0.42110009400887016 0.0
O O 0.28705201712200273 1.41954512848775 -0.7340250523408414 0.0
O O 0.3578047849429438 1.4891777516918916 -0.7552795807430152 0.0
Zn Zn 0.27212561558289233 1.4417857877546334 -0.3328131209807391 0.0
C C -0.23482866210011974 -0.8864321438809702 -0.595767631634352 0.0
H H -0.2337086621001197 -0.9370021438809703 -0.580837631634352 0.0
C C -0.24617030248488603 -0.8643978939386228 -0.5259690724594902 0.0
H H -0.24745030248488606 -0.883067893938623 -0.45742907245949016 0.0
C C -0.26731159732103044 -0.7721725147839288 -0.558736990591549 0.0
C C -0.2647176312102712 -0.7506894371928029 -0.6466959872359442 0.0
H H -0.2672876312102712 -0.7002594371928029 -0.6634559872359442 0.0
C C -0.2537303979325049 -0.8009802497657363 -0.7461223069135247 0.0
H H -0.2545103979325049 -0.7838602497657362 -0.8158923069135247 0.0
C C -0.3445570757703038 -0.9570410305778313 -0.9921359696300982 0.0
H H -0.3181370757703038 -0.9244110305778315 -1.0263059696300982 0.0
C C -0.4355721766177823 -0.9210833374164453 -1.0061546236178875 0.0
H H -0.45445217661778226 -0.8941533374164453 -1.0667146236178873 0.0
C C -0.44922909116323295 -0.979642889890702 -0.9886616888586376 0.0
C C -0.42631913055554893 -1.0376914694232295 -0.9033901787783114 0.0
H H -0.4520891305555488 -1.0698614694232291 -0.8674501787783113 0.0
C C -0.3722749820346447 -1.0158930892337497 -0.8449967433790537 0.0
H H -0.3520549820346447 -1.0422630892337497 -0.7845567433790536 0.0
C C -0.17079967617684544 -0.8882011883494801 -1.0010631858977677 0.0
C C -0.12625599868161466 -0.8612403272293558 -1.0514213000144152 0.0
C C -0.07528406556240891 -0.8040053335542853 -0.9992976294866805 0.0
H H -0.0756640655624089 -0.7900853335542852 -0.9282676294866806 0.0
C C -0.03643045842642853 -0.7639930456600031 -1.0661973484407437 0.0
H H -0.010810458426428528 -0.7236730456600031 -1.0353573484407437 0.0
C C -0.02123832584540221 -0.7819157955465212 -1.1457610464371395 0.0
C C -0.08646960245679541 -0.8336983779200499 -1.1981641274325 0.0
H H -0.08364960245679544 -0.8487683779200498 -1.2679341274325002 0.0
C C -0.11302595720044174 -0.8736049847825691 -1.1791977770699424 0.0
C C -0.18335300471593252 -0.9290928602711007 -1.2031187642718553 0.0
C C 0.004819337233286832 -0.7215436507332779 -1.2620292334330134 0.0
C C 0.05724992926923721 -0.6762809167007939 -1.179974358088077 0.0
F F 0.11488588754622818 -0.7362896815569189 -1.1037894915493516 0.0
F F 0.03535688958602272 -0.610189679635873 -1.1513423329020822 0.0
F F 0.0753739437363291 -0.6480017643542283 -1.2734134401334938 0.0
N N -0.23985300972486576 -0.8596049463758224 -0.7216530030902313 0.0
N N -0.3374204881330324 -0.9699422868848105 -0.9015852230079291 0.0
O O -0.15355196113781772 -0.9822636649538472 -0.9945059924087306 0.0
O O -0.16877246168917379 -0.8885028611268614 -0.8994991363046645 0.0
O O -0.2218451553363957 -0.9434853650864892 -1.1975184275572548 0.0
O O -0.1613824087230943 -0.9800455319085613 -1.2535189829330835 0.0
Zn Zn -0.20716807580563462 -0.9666281809744636 -0.8133997960759028 0.0
C C 0.2487381952235432 -0.9020222583177496 0.10055394621309942 0.0
H H 0.2476181952235432 -0.9525922583177495 0.08562394621309942 0.0
C C 0.22872434727190138 -0.8523640518036029 0.02637534570587211 0.0
H H 0.2300043472719014 -0.8710340518036029 -0.04216465429412788 0.0
C C 0.2573366587779606 -0.7763700793645846 0.039545655240347144 0.0
C C 0.2273019161423724 -0.7550523052830843 0.1410624332311114 0.0
H H 0.22987191614237235 -0.7046223052830842 0.1578224332311114 0.0
C C 0.25697781956239407 -0.7929260354723946 0.23817742681627968 0.0
H H 0.2577578195623941 -0.7758060354723946 0.3079474268162796 0.0
C C 0.3343348794264424 -0.9085454790296723 0.46664545036434996 0.0
H H 0.30791487942644247 -0.8759154790296724 0.50081545036435 0.0
C C 0.4207121871577676 -0.9366437708123659 0.49579311740848964 0.0
H H 0.43959218715776754 -0.9097137708123659 0.5563531174084896 0.0
C C 0.4544021010493759 -1.0085980755293515 0.5006151834182775 0.0
C C 0.4140034333758752 -1.0152218572339327 0.3674958698309466 0.0
H H 0.43977343337587516 -1.0473918572339325 0.33155586983094665 0.0
C C 0.36012495347671564 -1.005352258582121 0.34966976270639144 0.0
H H 0.3399049534767156 -1.0317222585821213 0.2892297627063914 0.0
C C 0.18191035734235217 -0.9157153464109593 0.4616512557464215 0.0
C C 0.10560713891569305 -0.8536665443763422 0.545297581226712 0.0
C C 0.08848890414297639 -0.7912745090252667 0.520852765528796 0.0
H H 0.08886890414297637 -0.7773545090252668 0.44982276552879596 0.0
C C 0.03951501215478804 -0.7515845480177968 0.5763149002124263 0.0
H H 0.013895012154788043 -0.7112645480177967 0.5454749002124262 0.0
C C 0.047127428391265845 -0.7841411024829607 0.6687353411057299 0.0
C C 0.055524139100253056 -0.8445916947882636 0.7136672832556263 0.0
H H 0.05270413910025306 -0.8596616947882634 0.7834372832556266 0.0
C C 0.1271085109071422 -0.8730974784281752 0.6705741958844962 0.0
C C 0.17775797364612017 -0.9272251011266084 0.7281991261809846 0.0
C C -0.004730090862731726 -0.7179120033367 0.7499485735699797 0.0
C C -0.043051243979469474 -0.6939306416744012 0.685731686410792 0.0
F F -0.09477955699869534 -0.7186216420517773 0.6079870879859114 0.0
F F -0.047697226754495184 -0.6151902341327941 0.5904495403985202 0.0
F F -0.08957398398432259 -0.6249325541004803 0.7442299808431325 0.0
N N 0.2216684374338949 -0.8867917277285121 0.19940937549384652 0.0
N N 0.32993126044032334 -0.9860117271422499 0.3993572320580815 0.0
O O 0.18083233201710708 -0.9656007550885485 0.5218567960215305 0.0
O O 0.19410832776082512 -0.8695484883247778 0.4203234775695683 0.0
O O 0.23067268203804717 -0.9293395784874542 0.7178394555473463 0.0
O O 0.1344401507681493 -0.9877689875258644 0.7558531174199623 0.0
Zn Zn 0.22826682064933257 -0.9648844214433531 0.3284687109848432 0.0
C C 0.25094417843295375 -0.3932642176081337 -0.5894225687538698 0.0
H H 0.2520641784329537 -0.4438342176081336 -0.5744925687538697 0.0
C C 0.24056420688142383 -0.3512277489553234 -0.5383841408601385 0.0
H H 0.23928420688142388 -0.3698977489553234 -0.4698441408601385 0.0
C C 0.2723988170831251 -0.2747931048599399 -0.5195693970600317 0.0
C C 0.2694692713631425 -0.24124671471839929 -0.6424515724498083 0.0
H H 0.26689927136314245 -0.19081671471839928 -0.6592115724498084 0.0
C C 0.254436419995325 -0.303595489557475 -0.725958511688983 0.0
H H 0.253656419995325 -0.286475489557475 -0.795728511688983 0.0
C C 0.1542892039772151 -0.4313833016151052 -0.9809715566140165 0.0
H H 0.18070920397721513 -0.39875330161510525 -1.0151415566140165 0.0
C C 0.07728125181898535 -0.42305445047465895 -1.0507537747849192 0.0
H H 0.05840125181898535 -0.39612445047465894 -1.1113137747849189 0.0
C C 0.04383609102284083 -0.4934265953848337 -0.9963039583178807 0.0
C C 0.07510429155834492 -0.5076975693436416 -0.9055983414109811 0.0
H H 0.04933429155834488 -0.5398675693436413 -0.869658341410981 0.0
C C 0.1255718453635889 -0.5261671597495012 -0.8431601922408892 0.0
H H 0.1457918453635889 -0.5525371597495012 -0.7827201922408892 0.0
C C 0.32696433059855584 -0.3901247653268516 -0.9870112852435561 0.0
C C 0.3767806299304956 -0.3675024407194181 -1.0591785434607122 0.0
C C 0.3897152489911737 -0.28720851821649757 -1.0359400643506018 0.0
H H 0.3893352489911737 -0.2732885182164976 -0.9649100643506019 0.0
C C 0.46674469079751774 -0.2507844676822936 -1.044568342522431 0.0
H H 0.4923646907975177 -0.2104644676822936 -1.0137283425224313 0.0
C C 0.460023411253138 -0.2816614503850215 -1.170751303180015 0.0
C C 0.43515886591779623 -0.3524547487790672 -1.2043419717695782 0.0
H H 0.4379788659177962 -0.3675247487790671 -1.2741119717695786 0.0
C C 0.36254479473888707 -0.36639449416228065 -1.1414652131191176 0.0
C C 0.33421708776549724 -0.448534063401812 -1.1924599490893262 0.0
C C 0.4915425877190545 -0.22884746571251205 -1.2472212671052216 0.0
C C 0.5757234807646092 -0.18701881732090458 -1.1910747845040333 0.0
F F 0.5997001199341286 -0.2198835414897101 -1.090105514022618 0.0
F F 0.5272760605373312 -0.11916217308111152 -1.1374659679351715 0.0
F F 0.5976331021755891 -0.1502851775225463 -1.276683535829888 0.0
N N 0.2354727539027728 -0.36766632459174303 -0.7276293315319595 0.0
N N 0.19076783717948503 -0.47169079854613355 -0.8743140216209053 0.0
O O 0.30536251106354645 -0.4621249448501293 -1.0304589649407423 0.0
O O 0.30850825668316445 -0.35194529553455217 -0.9089638167845278 0.0
O O 0.2590926391829508 -0.43743846577035306 -1.2361554818325413 0.0
O O 0.35895011055368176 -0.4826892053295197 -1.2540201355823617 0.0
Zn Zn 0.2743993690507212 -0.4420246379964526 -0.8216961092162554 0.0
C C 0.7386197832188299 -0.411745984942077 0.08053110251411354 0.0
H H 0.7374997832188299 -0.462315984942077 0.06560110251411354 0.0
C C 0.7522856354289487 -0.35965060222278505 0.022969208598548695 0.0
H H 0.7535656354289486 -0.37832060222278513 -0.04557079140145129 0.0
C C 0.7524366798077959 -0.2794067774259238 0.03470625955952062 0.0
C C 0.7629962944016098 -0.2354330891579513 0.143551227177883 0.0
H H 0.7655662944016095 -0.1850030891579513 0.160311227177883 0.0
C C 0.7325705459767191 -0.3038348417452282 0.2589524440683577 0.0
H H 0.733350545976719 -0.2867148417452282 0.32872244406835766 0.0
C C 0.8568159567758402 -0.4249024564849509 0.4806693315301315 0.0
H H 0.8303959567758401 -0.3922724564849509 0.5148393315301316 0.0
C C 0.9216464800683836 -0.44475239560285085 0.5298027030117893 0.0
H H 0.9405264800683835 -0.4178223956028509 0.5903627030117893 0.0
C C 0.9775441253734709 -0.497555804713349 0.4785237823071883 0.0
C C 0.9523393174479273 -0.5317321399219598 0.40448265767506064 0.0
H H 0.9781093174479276 -0.5639021399219595 0.36854265767506067 0.0
C C 0.8496740873401263 -0.535064281618486 0.3798473988968194 0.0
H H 0.8294540873401263 -0.561434281618486 0.3194073988968193 0.0
C C 0.6763860199181569 -0.3986480688523534 0.491959698662983 0.0
C C 0.6066977885943615 -0.3501404614965334 0.5582698240390968 0.0
C C 0.6090447505724284 -0.3201982693240019 0.5196230458061318 0.0
H H 0.6094247505724282 -0.30627826932400204 0.44859304580613174 0.0
C C 0.5512962278451004 -0.2694786393555573 0.5986094763187527 0.0
H H 0.5256762278451004 -0.22915863935555728 0.5677694763187527 0.0
C C 0.5338769710465644 -0.28552467894733896 0.6897724151779024 0.0
C C 0.5683208592145642 -0.3419146556892638 0.7172708464102118 0.0
H H 0.5655008592145643 -0.3569846556892638 0.7870408464102119 0.0
C C 0.6256749073491286 -0.37157586140383825 0.6789629938591694 0.0
C C 0.6750134176866918 -0.4376962950351874 0.7192378964777434 0.0
C C 0.5016823941099912 -0.23407425933964046 0.7547499836196725 0.0
C C 0.45652485722136465 -0.17622121319558462 0.6932990899236295 0.0
F F 0.4243573137398555 -0.23503050102800585 0.6123079063408225 0.0
F F 0.4696283938635824 -0.14673408552014053 0.660821294201255 0.0
F F 0.3947797749532223 -0.1476142129375687 0.7292790773634913 0.0
N N 0.7254313161374297 -0.3663905995691095 0.1700025761083793 0.0
N N 0.8234305124625847 -0.46091692892304836 0.40812968546713946 0.0
O O 0.6582409573053103 -0.4622096898654509 0.48890115665149714 0.0
O O 0.6940303585533181 -0.38011826060376397 0.42117237542812935 0.0
O O 0.7483863901196467 -0.45115272450004956 0.6958377346653384 0.0
O O 0.6788157872314184 -0.5065374337964712 0.7836816092981554 0.0
Zn Zn 0.7089240676037563 -0.4461504863218339 0.3156271078215432 0.0
