#======================================================================

# CRYSTAL DATA

#----------------------------------------------------------------------

data_VESTA_phase_1


_pd_phase_name                         MOF
_cell_length_a                         7.06932
_cell_length_b                         7.06951
_cell_length_c                         7.59829
_cell_angle_alpha                      89.99647
_cell_angle_beta                       89.99794
_cell_angle_gamma                      89.99879
_symmetry_space_group_name_H-M         P 1
_symmetry_Int_Tables_number            1

loop_
_symmetry_equiv_pos_as_xyz
   x, y, z

loop_
   _atom_site_label
   _atom_site_fract_x
   _atom_site_fract_y
   _atom_site_fract_z
   _atom_site_charge
N	0.5000233027649990 0.1979176221335977 0.5000037292037040	-0.196435
N	0.4999971520312292 0.8021018324892547 0.5000043741141975	-0.196745
N	0.8020678030613519 0.4999997261854876 0.4999905747074366	-0.196548
N	0.1978904830906155 0.4999659038857205 0.4999963310204635	-0.196854
C	0.5004325402630373 0.0989187907832237 0.3489995742118385	0.064461
C	0.5004318633187892 0.9011300848552030 0.3490022568804330	0.064746
C	0.9010913251181073 0.5005879772644110 0.3489842672673912	0.064504
C	0.0988795870588453 0.5005719386328437 0.3489917249762892	0.065195
C	0.4996187406040011 0.0988830562223107 0.6510125041614003	0.064481
C	0.4995935683599345 0.9010930100766109 0.6510115036603059	0.064815
C	0.0988484495358563 0.4993761292389117 0.6510075434365246	0.064917
C	0.9010621963421058 0.4993994234090152 0.6510024956142558	0.064680
H	0.5007519598387546 0.1758157081982277 0.2251282265867785	0.118578
H	0.5007682401216131 0.8242616782829746 0.2251230174625594	0.118429
H	0.8242128840558355 0.5010654223148765 0.2251151103735118	0.118325
H	0.1757756280740044 0.5010384502478388 0.2251150741323029	0.118296
H	0.4993432545558394 0.1757593916660384 0.7748916131583780	0.118481
H	0.4992692027154642 0.8242122475315666 0.7748880396495113	0.118505
H	0.1757293808268526 0.4989094340181447 0.7748785393795679	0.118263
H	0.8241660776921640 0.4989642981270273 0.7748717375197475	0.118394
Ni	0.4999988907117882 0.5000034202506701 0.4999965062701233	0.727988
F	0.5000598801628863 0.5001038069226663 0.2320180848530424	-0.506981
F	0.4999282938707699 0.4999037009226600 0.7679747506292341	-0.507012
F	0.3304835882561510 0.3304346319010807 0.0000867782073890	-0.526806
F	0.6695370944993724 0.6695605027389352 0.9999229632719642	-0.526735
F	0.6695892965209962 0.3304863354812188 0.0000100065329413	-0.526748
F	0.3304288604753099 0.6695364527300995 0.9999686973380570	-0.526778
Si	0.5000105300733282 0.5000090554894109 -0.0000060816193525	1.714586
	  	
		
		
		
		
		
		
		
		
		
		
		
		
		
		
		
		
		
		
		
		
		
		
		
		
		
		
		
		
