#======================================================================

# CRYSTAL DATA

#----------------------------------------------------------------------

data_VESTA_phase_1


_chemical_name_common                  'SIFSIX_2_Cu_i                         '
_cell_length_a                         13.64900
_cell_length_b                         13.64900
_cell_length_c                         8.09200
_cell_angle_alpha                      90
_cell_angle_beta                       90
_cell_angle_gamma                      90
_symmetry_space_group_name_H-M         P 1
_symmetry_Int_Tables_number            1

loop_
_space_group_symop_operation_xyz
   'x, y, z'

loop_
   _atom_site_label
   _atom_site_occupancy
   _atom_site_fract_x
   _atom_site_fract_y
   _atom_site_fract_z
   _atom_site_adp_type
   _atom_site_B_iso_or_equiv
   _atom_site_type_symbol
   C1         1.0    -0.000000      0.299654      0.350680     Biso  1.000000 C
   C2         1.0    -0.000000      0.198180      0.355800     Biso  1.000000 C
   C3         1.0     0.500000      0.799654      0.850680     Biso  1.000000 C
   C4         1.0     0.500000      0.698180      0.855800     Biso  1.000000 C
   C5         1.0    -0.000000      0.700346      0.350680     Biso  1.000000 C
   C6         1.0    -0.000000      0.801820      0.355800     Biso  1.000000 C
   C7         1.0     0.500000      0.200346      0.850680     Biso  1.000000 C
   C8         1.0     0.500000      0.301820      0.855800     Biso  1.000000 C
   C9         1.0     0.700346     -0.000000      0.350680     Biso  1.000000 C
   C10        1.0     0.801820     -0.000000      0.355800     Biso  1.000000 C
   C11        1.0     0.200346      0.500000      0.850680     Biso  1.000000 C
   C12        1.0     0.301820      0.500000      0.855800     Biso  1.000000 C
   C13        1.0     0.299654     -0.000000      0.350680     Biso  1.000000 C
   C14        1.0     0.198180     -0.000000      0.355800     Biso  1.000000 C
   C15        1.0     0.799654      0.500000      0.850680     Biso  1.000000 C
   C16        1.0     0.698180      0.500000      0.855800     Biso  1.000000 C
   C17        1.0    -0.000000      0.299654      0.649320     Biso  1.000000 C
   C18        1.0    -0.000000      0.198180      0.644200     Biso  1.000000 C
   C19        1.0     0.500000      0.799654      0.149320     Biso  1.000000 C
   C20        1.0     0.500000      0.698180      0.144200     Biso  1.000000 C
   C21        1.0    -0.000000      0.700346      0.649320     Biso  1.000000 C
   C22        1.0    -0.000000      0.801820      0.644200     Biso  1.000000 C
   C23        1.0     0.500000      0.200346      0.149320     Biso  1.000000 C
   C24        1.0     0.500000      0.301820      0.144200     Biso  1.000000 C
   C25        1.0     0.299654     -0.000000      0.649320     Biso  1.000000 C
   C26        1.0     0.198180     -0.000000      0.644200     Biso  1.000000 C
   C27        1.0     0.799654      0.500000      0.149320     Biso  1.000000 C
   C28        1.0     0.698180      0.500000      0.144200     Biso  1.000000 C
   C29        1.0     0.700346     -0.000000      0.649320     Biso  1.000000 C
   C30        1.0     0.801820     -0.000000      0.644200     Biso  1.000000 C
   C31        1.0     0.200346      0.500000      0.149320     Biso  1.000000 C
   C32        1.0     0.301820      0.500000      0.144200     Biso  1.000000 C
   C33        1.0    -0.000000      0.455415      0.500000     Biso  1.000000 C
   C34        1.0    -0.000000      0.352272      0.500000     Biso  1.000000 C
   C35        1.0     0.500000      0.955415     -0.000000     Biso  1.000000 C
   C36        1.0     0.500000      0.852271     -0.000000     Biso  1.000000 C
   C37        1.0    -0.000000      0.544585      0.500000     Biso  1.000000 C
   C38        1.0    -0.000000      0.647729      0.500000     Biso  1.000000 C
   C39        1.0     0.500000      0.044585     -0.000000     Biso  1.000000 C
   C40        1.0     0.500000      0.147728     -0.000000     Biso  1.000000 C
   C41        1.0     0.544585     -0.000000      0.500000     Biso  1.000000 C
   C42        1.0     0.647729     -0.000000      0.500000     Biso  1.000000 C
   C43        1.0     0.044585      0.500000     -0.000000     Biso  1.000000 C
   C44        1.0     0.147728      0.500000     -0.000000     Biso  1.000000 C
   C45        1.0     0.455415     -0.000000      0.500000     Biso  1.000000 C
   C46        1.0     0.352272     -0.000000      0.500000     Biso  1.000000 C
   C47        1.0     0.955415      0.500000     -0.000000     Biso  1.000000 C
   C48        1.0     0.852271      0.500000     -0.000000     Biso  1.000000 C
   H1         1.0    -0.000000      0.337417      0.232203     Biso  1.000000 H
   H2         1.0    -0.000000      0.155109      0.242568     Biso  1.000000 H
   H3         1.0     0.500000      0.837417      0.732203     Biso  1.000000 H
   H4         1.0     0.500000      0.655109      0.742568     Biso  1.000000 H
   H5         1.0    -0.000000      0.662583      0.232203     Biso  1.000000 H
   H6         1.0    -0.000000      0.844891      0.242568     Biso  1.000000 H
   H7         1.0     0.500000      0.162583      0.732203     Biso  1.000000 H
   H8         1.0     0.500000      0.344891      0.742568     Biso  1.000000 H
   H9         1.0     0.662583     -0.000000      0.232203     Biso  1.000000 H
   H10        1.0     0.844891     -0.000000      0.242568     Biso  1.000000 H
   H11        1.0     0.162583      0.500000      0.732203     Biso  1.000000 H
   H12        1.0     0.344891      0.500000      0.742568     Biso  1.000000 H
   H13        1.0     0.337417     -0.000000      0.232203     Biso  1.000000 H
   H14        1.0     0.155109     -0.000000      0.242568     Biso  1.000000 H
   H15        1.0     0.837417      0.500000      0.732203     Biso  1.000000 H
   H16        1.0     0.655109      0.500000      0.742568     Biso  1.000000 H
   H17        1.0    -0.000000      0.337417      0.767797     Biso  1.000000 H
   H18        1.0    -0.000000      0.155109      0.757432     Biso  1.000000 H
   H19        1.0     0.500000      0.837417      0.267797     Biso  1.000000 H
   H20        1.0     0.500000      0.655109      0.257432     Biso  1.000000 H
   H21        1.0    -0.000000      0.662583      0.767797     Biso  1.000000 H
   H22        1.0    -0.000000      0.844891      0.757432     Biso  1.000000 H
   H23        1.0     0.500000      0.162583      0.267797     Biso  1.000000 H
   H24        1.0     0.500000      0.344891      0.257432     Biso  1.000000 H
   H25        1.0     0.337417     -0.000000      0.767797     Biso  1.000000 H
   H26        1.0     0.155109     -0.000000      0.757432     Biso  1.000000 H
   H27        1.0     0.837417      0.500000      0.267797     Biso  1.000000 H
   H28        1.0     0.655109      0.500000      0.257432     Biso  1.000000 H
   H29        1.0     0.662583     -0.000000      0.767797     Biso  1.000000 H
   H30        1.0     0.844891     -0.000000      0.757432     Biso  1.000000 H
   H31        1.0     0.162583      0.500000      0.267797     Biso  1.000000 H
   H32        1.0     0.344891      0.500000      0.257432     Biso  1.000000 H
   Cu1        1.0    -0.000000     -0.000000      0.500000     Biso  1.000000 Cu
   Cu2        1.0     0.500000      0.500000     -0.000000     Biso  1.000000 Cu
   Si1        1.0    -0.000000     -0.000000     -0.000000     Biso  1.000000 Si
   Si2        1.0     0.500000      0.500000      0.500000     Biso  1.000000 Si
   N1         1.0    -0.000000      0.148410      0.500000     Biso  1.000000 N
   N2         1.0     0.500000      0.648410     -0.000000     Biso  1.000000 N
   N3         1.0    -0.000000      0.851590      0.500000     Biso  1.000000 N
   N4         1.0     0.500000      0.351590     -0.000000     Biso  1.000000 N
   N5         1.0     0.851590     -0.000000      0.500000     Biso  1.000000 N
   N6         1.0     0.351590      0.500000     -0.000000     Biso  1.000000 N
   N7         1.0     0.148410     -0.000000      0.500000     Biso  1.000000 N
   N8         1.0     0.648410      0.500000     -0.000000     Biso  1.000000 N
   F1         1.0    -0.000000     -0.000000      0.784652     Biso  1.000000 F
   F2         1.0     0.500000      0.500000      0.284652     Biso  1.000000 F
   F3         1.0    -0.000000     -0.000000      0.215348     Biso  1.000000 F
   F4         1.0     0.500000      0.500000      0.715348     Biso  1.000000 F
   F5         1.0     0.588485      0.588485      0.500000     Biso  1.000000 F
   F6         1.0     0.588485      0.411515      0.500000     Biso  1.000000 F
   F7         1.0     0.411515      0.588485      0.500000     Biso  1.000000 F
   F8         1.0     0.411515      0.411515      0.500000     Biso  1.000000 F
   F9         1.0     0.088485      0.088485     -0.000000     Biso  1.000000 F
   F10        1.0     0.911515      0.911515     -0.000000     Biso  1.000000 F
   F11        1.0     0.911515      0.088485     -0.000000     Biso  1.000000 F
   F12        1.0     0.088485      0.911515     -0.000000     Biso  1.000000 F
