_cell_length_a 13.649
_cell_length_b 13.649
_cell_length_c 8.092
_cell_angle_alpha 90.0
_cell_angle_beta 90.0
_cell_angle_gamma 90.0
_symmetry_space_group_name_H-M         'P 1'
_symmetry_Int_Tables_number            1
loop_
_symmetry_equiv_pos_as_xyz
   'x, y, z'
                         
loop_
_atom_site_label
_atom_site_type_symbol
_atom_site_fract_x 
_atom_site_fract_y
_atom_site_fract_z
_atom_site_charge
C7 C7 0.00194521320057525 0.2726479075992799 0.36745840794138224 0.0
C9 C9 -0.031823622559016176 0.22180765492971014 0.31911873147468434 0.0
C7 C7 0.5082891239048544 0.8059023340771807 0.853485998006606 0.0
C9 C9 0.5138152246890403 0.7110214309681778 0.8601689597728112 0.0
C7 C7 0.00034963967533292175 0.691380123158455 0.35302245096563045 0.0
C9 C9 -0.011327176497987116 0.8236381113076229 0.38214531713589317 0.0
C7 C7 0.5257486751885068 0.18270285609215028 0.8600670785295809 0.0
C9 C9 0.4978866082010919 0.2954469938832705 0.86603982967848 0.0
C7 C7 0.7018555699400176 0.019823036386558593 0.3828531337028368 0.0
C9 C9 0.798087316330072 0.011829902836284224 0.34996230608601214 0.0
C7 C7 0.19139498839083294 0.4933631111191124 0.906148937054308 0.0
C9 C9 0.3236707486061872 0.5014397845215298 0.8892277260743404 0.0
C7 C7 0.2840115117503565 0.007113947975294611 0.3228643112420916 0.0
C9 C9 0.1910380010053172 -0.026332172203983185 0.38210256587875663 0.0
C7 C7 0.756714211344328 0.509168202011552 0.8333859634147839 0.0
C9 C9 0.6985746907323142 0.5139062552711285 0.8507134850641643 0.0
C7 C7 0.022361696013229595 0.30007357930291656 0.6503547022404091 0.0
C9 C9 -0.010186739301008907 0.19276844324881942 0.5998264543702853 0.0
C7 C7 0.5098920665371234 0.8048779295602246 0.11546980441048067 0.0
C9 C9 0.5126853204553836 0.6811490931483043 0.1140741581150147 0.0
C7 C7 -0.011120817720122021 0.7156433912707595 0.6429831609883065 0.0
C9 C9 0.023352826271467286 0.8272173650050018 0.6522461337635543 0.0
C7 C7 0.48360831226991985 0.20577907003918017 0.12980030797488412 0.0
C9 C9 0.5015179824816967 0.3074495444994433 0.13641358412963675 0.0
C7 C7 0.29257859787865437 -0.0007465592339803213 0.6264729984259045 0.0
C9 C9 0.1986175232000493 0.0020397820660406868 0.6542408493795286 0.0
C7 C7 0.7916234733893975 0.5061484861748653 0.16270035075303466 0.0
C9 C9 0.7045792024883845 0.49363915806427877 0.16067390661545303 0.0
C7 C7 0.7338422640616106 -0.0050673645152007575 0.6329798404648134 0.0
C9 C9 0.8198104895824021 0.011385870391206334 0.6259695536835339 0.0
C7 C7 0.2159701323893737 0.5019758538767726 0.14821044982292597 0.0
C9 C9 0.3045525288828918 0.514766244940209 0.17707609408614375 0.0
C5 C5 -0.027279966237038124 0.4739155504279504 0.5174334974462182 0.0
C8 C8 0.012088406500023926 0.3614591436728368 0.5096132164553249 0.0
C5 C5 0.49702149306041477 0.9502643881423182 0.028777436064845643 0.0
C5 C5 0.5083587661234994 0.8403440484323156 -0.027229417667392883 0.0
C5 C5 -0.006588724205731035 0.5393610957476622 0.4711745641744812 0.0
C8 C8 -0.0012023019401844457 0.6263594593192184 0.5162573973121654 0.0
C5 C5 0.5288399233569925 0.029475614685330956 -0.006385493099839569 0.0
C5 C5 0.49364150150419955 0.13900972038746776 0.011687221819894978 0.0
C5 C5 0.5448527656232096 -0.009020587249139553 0.4872259708334253 0.0
C8 C8 0.6501429198677897 0.005541567659582398 0.489921138092111 0.0
C5 C5 0.06340675881340169 0.5155945072172886 0.03831812696045466 0.0
C8 C8 0.1604294741149122 0.46935871686125075 0.012887051199059972 0.0
C5 C5 0.4401447668550016 0.016251142887963522 0.46637719378151 0.0
C8 C8 0.3478117468938402 -0.0050276733736978356 0.4962151414702761 0.0
C5 C5 0.9465072357188692 0.5254897114753034 0.0003520963436356767 0.0
C8 C8 0.8467673861125233 0.4809355554910572 0.025937968313831477 0.0
H H 0.00194521320057525 0.31041790759927995 0.24897840794138226 0.0
H H -0.031823622559016176 0.17873765492971014 0.20588873147468437 0.0
H H 0.5082891239048544 0.8436723340771808 0.7350059980066058 0.0
H H 0.5138152246890403 0.6679514309681778 0.7469389597728111 0.0
H H 0.00034963967533292175 0.653610123158455 0.23454245096563042 0.0
H H -0.011327176497987116 0.866708111307623 0.2689153171358932 0.0
H H 0.5257486751885068 0.1449328560921503 0.7415870785295808 0.0
H H 0.49788660820109193 0.3385169938832705 0.7528098296784799 0.0
H H 0.6640855699400176 0.019823036386558593 0.26437313370283677 0.0
H H 0.8411573163300721 0.011829902836284224 0.23673230608601217 0.0
H H 0.15362498839083297 0.4933631111191124 0.787668937054308 0.0
H H 0.36674074860618716 0.5014397845215298 0.7759977260743403 0.0
H H 0.32178151175035646 0.007113947975294611 0.20438431124209158 0.0
H H 0.1479680010053172 -0.026332172203983185 0.2688725658787567 0.0
H H 0.7944842113443281 0.509168202011552 0.7149059634147839 0.0
H H 0.655504690732314 0.5139062552711285 0.7374834850641643 0.0
H H 0.022361696013229595 0.33784357930291653 0.7688347022404092 0.0
H H -0.010186739301008906 0.14969844324881942 0.7130564543702853 0.0
H H 0.5098920665371234 0.8426479295602247 0.23394980441048066 0.0
H H 0.5126853204553836 0.6380790931483041 0.22730415811501475 0.0
H H -0.011120817720122023 0.6778733912707594 0.7614631609883066 0.0
H H 0.023352826271467286 0.8702873650050019 0.7654761337635544 0.0
H H 0.48360831226991985 0.16800907003918017 0.24828030797488412 0.0
H H 0.5015179824816967 0.3505195444994432 0.24964358412963678 0.0
H H 0.3303485978786544 -0.0007465592339803212 0.7449529984259047 0.0
H H 0.1555475232000493 0.002039782066040687 0.7674708493795287 0.0
H H 0.8293934733893976 0.5061484861748653 0.2811803507530346 0.0
H H 0.6615092024883844 0.49363915806427877 0.2739039066154531 0.0
H H 0.6960722640616106 -0.0050673645152007575 0.7514598404648135 0.0
H H 0.8628804895824022 0.011385870391206336 0.739199553683534 0.0
H H 0.1782001323893737 0.5019758538767726 0.26669044982292595 0.0
H H 0.3476225288828918 0.514766244940209 0.29030609408614383 0.0
Cu Cu 0.014256930441319713 0.020581936498503713 0.5220235895927374 0.0
Cu Cu 0.5193658673984025 0.5280430197062272 -0.002865472776637527 0.0
Si Si -0.0177202859737329 0.00495918774780756 0.008166034707513686 0.0
Si Si 0.5073695187480726 0.5127728591695176 0.5087523955584711 0.0
N N -0.027238979171049643 0.13311236188100342 0.48747515945595005 0.0
N N 0.5096873416008904 0.6497271174657113 -0.042555114927269475 0.0
N N -0.008327945787730023 0.8585181980572136 0.5070299374528306 0.0
N N 0.4746400416261998 0.3347490718332337 9.270595890312535e-05 0.0
N N 0.8671135625285395 -0.006775769236963787 0.5241914906542845 0.0
N N 0.33620442118703403 0.5190146533386125 -0.03843628296016719 0.0
N N 0.13126693684486818 0.0017155895443800395 0.5046881333332128 0.0
N N 0.6333191129046059 0.5266770854221349 0.07636242533362017 0.0
F3 F3 0.005974669922694377 0.00887974488027537 0.8060822450912632 0.0
F3 F3 0.5098140113905384 0.4839635321491865 0.2590063250423598 0.0
F3 F3 -0.014959148084995696 -0.009965974593360629 0.21720789445660843 0.0
F3 F3 0.5118499913990856 0.5101466477666095 0.7159922350485806 0.0
F F 0.5921018386721153 0.6121401302928244 0.48984686833157765 0.0
F F 0.5811458057984881 0.4161272780875099 0.5352677975283857 0.0
F F 0.40324556741031975 0.5819405633066312 0.5305387818435733 0.0
F F 0.42966283973714076 0.39283664515270467 0.495528488587054 0.0
F F 0.10252278234938765 0.0812136070072683 0.0056488739241389 0.0
F F 0.9499915678177869 0.9208638917997105 0.022954920434907385 0.0
F F 0.9167466716413796 0.07572236438574216 0.010890896007104585 0.0
F F 0.06712937696771248 0.8944404544263748 0.02172993500723784 0.0
