_cell_length_a 20.4364
_cell_length_b 9.005017
_cell_length_c 16.6723
_cell_angle_alpha 90.0
_cell_angle_beta 110.2303
_cell_angle_gamma 90.0
_symmetry_space_group_name_H-M         'P 1'
_symmetry_Int_Tables_number            1
loop_
_symmetry_equiv_pos_as_xyz
   'x, y, z'
                         
loop_
_atom_site_label
_atom_site_type_symbol
_atom_site_fract_x 
_atom_site_fract_y
_atom_site_fract_z
_atom_site_charge
Zn Zn 0.17111710719036913 0.28841586695154714 0.2671543607741342 0.0
Zn Zn -0.005858580179957335 0.17320150359669828 0.2601200764304575 0.0
O O 0.0556121614190076 0.14306895230176853 0.3492395763531964 0.0
O O 0.049264972532398955 0.3664644739288957 0.18897103885447766 0.0
O O 0.1680078115880261 0.1911162039486326 0.385639316438089 0.0
N N 0.26487770790720916 0.04868337855085872 0.6902430411653998 0.0
N N 0.21580788972681936 -0.15480788386332886 0.7145393779471473 0.0
C C 0.19866101736403224 0.09683817927223697 0.5392422755369698 0.0
H H 0.23113101736403227 0.16375817927223693 0.5297022755369699 0.0
C C 0.1141458106663859 0.1500961095987779 0.3786009032905518 0.0
C C 0.14571087619623604 0.05611220681934527 0.47366270553881196 0.0
C C 0.108768649681182 -0.13096146583921092 0.5772543387323388 0.0
H H 0.07732864968118197 -0.2015814658392109 0.5861143387323386 0.0
C C 0.20669686082872965 0.03266374852978063 0.6177506319625865 0.0
C C 0.25207754225610307 -0.09812813323404919 0.7640543876476007 0.0
C C 0.1360229059177066 -0.1365348921024915 0.6177659069678303 0.0
C C 0.08653183692751927 -0.012876421089420777 0.4884807404983578 0.0
H H 0.044201836927519285 -0.033896421089420765 0.4431407404983579 0.0
O O 0.32727293763626664 0.054182891351263106 0.8635871457249097 0.0
H H 0.3024229376362666 0.1131928913512631 0.8795471457249098 0.0
C C 0.29885826548665195 -0.10437054186956321 0.8077408498663088 0.0
H H 0.27509826548665195 -0.1466595418695632 0.8458808498663087 0.0
C C 0.3662446043092441 -0.20982333209009843 0.8212246979197538 0.0
H H 0.06696526301045534 0.11104920734741532 0.06392312623787562 0.0
H H 0.06696526301045534 0.11104920734741532 0.06392312623787562 0.0
H H 0.3507646043092441 -0.3052053320900984 0.7926146979197538 0.0
H H 0.05023497253239896 0.39814447392889574 0.15553103885447767 0.0
Zn Zn -0.1611353024175547 0.3078702982301562 0.2252351791010995 0.0
O O -0.05343419089968751 0.15577757006853715 0.1781011964231427 0.0
O O -0.06412344034553231 0.4109747797543001 0.2852257445400371 0.0
O O -0.15554979814002098 0.2659484491310476 0.13170170106016132 0.0
N N -0.25278972683275963 0.08955290468492305 -0.2128461943469785 0.0
N N -0.20816847152325715 -0.14400210142540054 -0.22264440255027365 0.0
C C -0.1873684437913155 0.09345594049583027 -0.04735758753613024 0.0
H H -0.21983844379131556 0.16037594049583026 -0.037817587536130244 0.0
C C -0.11335493403997353 0.12848743680978872 0.12035864097760193 0.0
C C -0.12181251480540928 0.06150454431576766 0.025348080717775404 0.0
C C -0.11257910172717327 -0.1318992317395421 -0.09193822403503893 0.0
H H -0.08113910172717324 -0.20251923173954212 -0.1007982240350389 0.0
C C -0.2154697952235837 0.02420012235527504 -0.11131964616061275 0.0
C C -0.22740914855509023 -0.07515635777149471 -0.26089577430541605 0.0
C C -0.1786500317734705 -0.0736528514809068 -0.14850282710072474 0.0
C C -0.094599353855846 -0.03818810827471911 0.017422758063246765 0.0
H H -0.05226935385584602 -0.059208108274719104 0.06276275806324676 0.0
O O -0.34444459997679056 0.04573583187154566 -0.35668639278939607 0.0
H H -0.3195945999767905 0.10474583187154567 -0.37264639278939604 0.0
C C -0.2896922719580163 -0.08695835961047237 -0.35040742895265675 0.0
H H -0.2659322719580163 -0.12924735961047235 -0.38854742895265665 0.0
C C -0.35162642572397945 -0.10114595913900416 -0.337866965535516 0.0
H H 0.06696526301045534 0.11104920734741532 0.06392312623787562 0.0
H H 0.06696526301045534 0.11104920734741532 0.06392312623787562 0.0
H H -0.33614642572397946 -0.19652795913900417 -0.30925696553551607 0.0
H H -0.06509344034553227 0.44265477975430007 0.31866574454003715 0.0
Zn Zn 0.6582583202823864 0.8177440718865608 0.27623897207416903 0.0
Zn Zn 0.4737033575713381 0.7252978259634484 0.24962352655178527 0.0
O O 0.5522292284650545 0.6462954047283573 0.3323367909170369 0.0
O O 0.5676123552640878 0.8839518893516028 0.2403863793387287 0.0
O O 0.6690578937565812 0.7465838781154582 0.3847829596360992 0.0
N N 0.7460881478795378 0.5744415058097443 0.7003468606008146 0.0
N N 0.7097871923637203 0.3510705334959838 0.7188811508000215 0.0
C C 0.7006692572394294 0.6078116562511797 0.5305328368700883 0.0
H H 0.7331392572394295 0.6747316562511798 0.5209928368700885 0.0
C C 0.6082679325264019 0.5831955318457289 0.3949743516252198 0.0
C C 0.6310864679330558 0.5225865063743096 0.4617252177986129 0.0
C C 0.5860616018173379 0.3640185139627321 0.5659958300950878 0.0
H H 0.554621601817338 0.2933985139627321 0.5748558300950877 0.0
C C 0.6955057401926236 0.47797865673794376 0.6174683308006059 0.0
C C 0.7414819555191505 0.42044810095884777 0.7337743720481031 0.0
C C 0.6368267959550785 0.4371460640051647 0.6073585804867556 0.0
C C 0.59766859594561 0.42889497342729027 0.4935733070711014 0.0
H H 0.5553385959456099 0.40787497342729023 0.44823330707110143 0.0
O O 0.8414993471815455 0.5255038711705656 0.8554548875715311 0.0
H H 0.8166493471815455 0.5845138711705656 0.8714148875715312 0.0
C C 0.7995470523852127 0.45473741105027554 0.8328665040088887 0.0
H H 0.7757870523852127 0.4124484110502755 0.8710065040088887 0.0
C C 0.8941211199856041 0.2558942806407291 0.8632400498958943 0.0
H H 0.06696526301045534 0.11104920734741532 0.06392312623787562 0.0
H H 0.06696526301045534 0.11104920734741532 0.06392312623787562 0.0
H H 0.8786411199856041 0.16051228064072906 0.8346300498958944 0.0
H H 0.5685823552640878 0.915631889351603 0.20694637933872873 0.0
Zn Zn 0.35069054463024146 0.776752144015415 0.2382782203928759 0.0
O O 0.45374089249482896 0.5993588444974673 0.1515856047366201 0.0
O O 0.45074296866537256 0.8890831497357551 0.2845240434508122 0.0
O O 0.35036045467166194 0.750916286161688 0.13959239455517664 0.0
N N 0.24216391671986495 0.5297692613450301 -0.1845527841647116 0.0
N N 0.3176433401213436 0.3290515898003278 -0.19598864301482977 0.0
C C 0.30648491232232744 0.6200568085736192 -0.043683906001628955 0.0
H H 0.27401491232232744 0.6869768085736193 -0.03414390600162896 0.0
C C 0.3874935658608442 0.6400083593961483 0.10395874769701871 0.0
C C 0.3570607518000409 0.5386836064449178 0.02801586185022944 0.0
C C 0.402698427505776 0.40774116874268773 -0.061668845296072125 0.0
H H 0.4341384275057759 0.3371211687426877 -0.0705288452960721 0.0
C C 0.29119936729096463 0.528007740859352 -0.11914264608498097 0.0
C C 0.2555498521493942 0.439066109585395 -0.2507635454258422 0.0
C C 0.33327093782370326 0.4162118667381125 -0.12164248961935652 0.0
C C 0.40933370630819943 0.5262384300801259 0.024851019029158972 0.0
H H 0.45166370630819946 0.5052184300801259 0.07019101902915896 0.0
O O 0.1722073002604584 0.4677396147595034 -0.39508583636618955 0.0
H H 0.19705730026045842 0.5267496147595034 -0.4110458363661895 0.0
C C 0.21757144994739627 0.3877080579455098 -0.3282876989975525 0.0
H H 0.24133144994739625 0.3454190579455097 -0.36642769899755245 0.0
C C 0.1596738393229448 0.2521637039429667 -0.3216278863186628 0.0
H H 0.06696526301045534 0.11104920734741532 0.06392312623787562 0.0
H H 0.06696526301045534 0.11104920734741532 0.06392312623787562 0.0
H H 0.17515383932294482 0.15678170394296673 -0.29301788631866293 0.0
H H 0.44977296866537264 0.9207631497357552 0.31796404345081225 0.0
Zn Zn -0.15067566729384688 -0.31000501811855735 -0.27080243205289867 0.0
Zn Zn -0.013963893527778999 -0.31938905814206053 -0.23783205328470663 0.0
O O -0.05281156581449906 -0.15946357698270416 -0.3304074388717649 0.0
O O -0.04947391372137791 -0.3498167549226613 -0.21321869532935742 0.0
O O -0.13437112404861662 -0.22997225752206246 -0.38930290471907525 0.0
N N -0.27308790944279093 -0.03949102887721784 -0.6832844476741132 0.0
N N -0.20404871839896832 0.1882070847464653 -0.6925485994780728 0.0
C C -0.21191435364097158 -0.11666960183419316 -0.5551813044067541 0.0
H H -0.24438435364097164 -0.18358960183419312 -0.5456413044067542 0.0
C C -0.10786573291198118 -0.11596894468240826 -0.39081101726991774 0.0
C C -0.1019676780509997 -0.05400644728123111 -0.4708766434936923 0.0
C C -0.12523054174836395 0.08341025502725287 -0.5812061844541789 0.0
H H -0.09379054174836393 0.15403025502725287 -0.5900661844541789 0.0
C C -0.20133554759227457 -0.020273250214375822 -0.6128344666912596 0.0
C C -0.2328475826463269 0.08951523316776251 -0.7351673204064939 0.0
C C -0.16148666435367662 0.10514005550519388 -0.631752560112654 0.0
C C -0.09829757002959554 0.06048297660836217 -0.4851822439626278 0.0
H H -0.055967570029595536 0.08150297660836214 -0.43984224396262783 0.0
O O -0.3933026249450129 -0.024388953665643816 -0.8747907777988944 0.0
H H -0.3684526249450129 -0.08339895366564382 -0.8907507777988944 0.0
C C -0.31020166947783206 0.16283100100356043 -0.8362321406846293 0.0
H H -0.28644166947783206 0.20512000100356043 -0.8743721406846292 0.0
C C -0.35606723193770434 0.06701734159815706 -0.87465107212337 0.0
H H 0.06696526301045534 0.11104920734741532 0.06392312623787562 0.0
H H 0.06696526301045534 0.11104920734741532 0.06392312623787562 0.0
H H -0.34058723193770435 0.16239934159815705 -0.8460410721233701 0.0
H H -0.050443913721377916 -0.38149675492266133 -0.17977869532935742 0.0
Zn Zn 0.14184298424299271 -0.32185640869659154 -0.23990617815758228 0.0
O O 0.07497917146813597 -0.12091749743012373 -0.16765846337510687 0.0
O O 0.07722355428655656 -0.2765987742967374 -0.24521832591128745 0.0
O O 0.14655707491940353 -0.20826979816183508 -0.11914119203549417 0.0
N N 0.23369884079091333 -0.019249061217423688 0.17994952792329294 0.0
N N 0.20500320954062992 0.1420062065689124 0.2252471801054475 0.0
C C 0.20010113426387557 -0.04558726522584699 0.05740356584020644 0.0
H H 0.23257113426387557 -0.11250726522584699 0.04786356584020645 0.0
C C 0.09938788427904045 -0.1113460769265901 -0.11148642273210395 0.0
C C 0.1327443578445526 -0.07511633724463851 -0.017328990315365066 0.0
C C 0.09046718731697853 0.10478241314910396 0.0814532939359511 0.0
H H 0.05902718731697852 0.17540241314910396 0.09031329393595108 0.0
C C 0.2107646295385664 -0.04100083547822997 0.11371628473807584 0.0
C C 0.2735928137863721 0.031909552391773746 0.24218491696571168 0.0
C C 0.17341444871463946 0.10942147419464991 0.1404814565456798 0.0
C C 0.09152295227013957 0.018691700731667073 -0.00874242868534815 0.0
H H 0.04919295227013957 0.039711700731667056 -0.05408242868534814 0.0
O O 0.3577889173666525 -0.037991502567237115 0.3954804582312182 0.0
H H 0.3329389173666525 -0.09700150256723712 0.4114404582312182 0.0
C C 0.3032884211550195 0.06382305002839612 0.31620993243976364 0.0
H H 0.2795284211550196 0.1061120500283961 0.3543499324397636 0.0
C C 0.3636582783610295 0.041392994891626025 0.31470068162593223 0.0
H H 0.06696526301045534 0.11104920734741532 0.06392312623787562 0.0
H H 0.06696526301045534 0.11104920734741532 0.06392312623787562 0.0
H H 0.34817827836102955 0.13677499489162603 0.2860906816259324 0.0
H H 0.07819355428655654 -0.3082787742967374 -0.2786583259112875 0.0
Zn Zn 0.335668365097455 0.1710772137948753 -0.24819040225822334 0.0
Zn Zn 0.5094138615546073 0.24176044728876153 -0.2450772381031353 0.0
O O 0.4445415468893852 0.3911545226608328 -0.3314616573895471 0.0
O O 0.441143365592441 0.12432863471116043 -0.2342713631149395 0.0
O O 0.34762973640244527 0.2972446150595264 -0.39581782804602383 0.0
N N 0.24500961956496528 0.4602452832188883 -0.6860279358807199 0.0
N N 0.2910195582785016 0.6391062022920021 -0.723987972419226 0.0
C C 0.3000476177445453 0.4090483089861373 -0.5547081597206708 0.0
H H 0.26757761774454525 0.3421283089861372 -0.5451681597206709 0.0
C C 0.3860641410360249 0.37255136740893235 -0.3989757712780651 0.0
C C 0.3629462564727111 0.4347778199336004 -0.4873023742975212 0.0
C C 0.40641356293006253 0.6111661100642231 -0.5439612361047506 0.0
H H 0.4378535629300624 0.6817861100642232 -0.5528212361047504 0.0
C C 0.30100644973979745 0.4950147965077972 -0.6348477617817281 0.0
C C 0.2706767720501495 0.5538721849794964 -0.749608766452184 0.0
C C 0.3439232596920558 0.5815941713634908 -0.6203692046059621 0.0
C C 0.42340464352864104 0.5765193561622971 -0.49945550830928087 0.0
H H 0.46573464352864097 0.5975393561622969 -0.45411550830928094 0.0
O O 0.1460097936954683 0.4577011202220164 -0.8706897587579868 0.0
H H 0.17085979369546833 0.3986911202220163 -0.8866497587579868 0.0
C C 0.21183624749848068 0.5583303371436967 -0.8478418316422587 0.0
H H 0.23559624749848065 0.6006193371436969 -0.8859818316422586 0.0
C C 0.13793318107269031 0.6084234935943272 -0.846018388312554 0.0
H H 0.06696526301045534 0.11104920734741532 0.06392312623787562 0.0
H H 0.06696526301045534 0.11104920734741532 0.06392312623787562 0.0
H H 0.15341318107269036 0.7038054935943273 -0.8174083883125541 0.0
H H 0.4401733655924411 0.09264863471116042 -0.20083136311493952 0.0
Zn Zn 0.6356819375912531 0.16834940270752125 -0.2316470518789565 0.0
O O 0.5842258156785424 0.341886168064189 -0.16391278711591273 0.0
O O 0.5659970409583273 0.07659473706732614 -0.313176567374469 0.0
O O 0.6563751275015012 0.2851824445637394 -0.12066877405470107 0.0
N N 0.7574578527781909 0.4708097239125744 0.21037371732573948 0.0
N N 0.6966509051623943 0.6567403375210448 0.2145638613578394 0.0
C C 0.69837422208129 0.40557965468636487 0.05116587590172104 0.0
H H 0.73084422208129 0.3386596546863649 0.041625875901721045 0.0
C C 0.5946752542384368 0.39787389067992596 -0.13218733503650346 0.0
C C 0.615565470741078 0.38414006624621383 -0.03998412663916245 0.0
C C 0.6060690434893243 0.6174709818990796 0.07024136989772976 0.0
H H 0.5746290434893243 0.6880909818990796 0.07910136989772974 0.0
C C 0.7262579615339231 0.4592661966089127 0.13798981063099466 0.0
C C 0.7484283612999835 0.5307879454889908 0.2215754726142445 0.0
C C 0.6638155837477464 0.5972956950703623 0.13511347893520717 0.0
C C 0.5700318077789653 0.5719948956508513 -0.002491796950394659 0.0
H H 0.5277018077789652 0.5930148956508512 -0.04783179695039465 0.0
O O 0.806565962375409 0.49983493254943495 0.41050448647106624 0.0
H H 0.7817159623754089 0.44082493254943483 0.4264644864710663 0.0
C C 0.7745517068263641 0.6227602998677478 0.3629198651355036 0.0
H H 0.7507917068263642 0.6650492998677477 0.40105986513550357 0.0
C C 0.8476718690815406 0.6004031157066415 0.34927759672979747 0.0
H H 0.06696526301045534 0.11104920734741532 0.06392312623787562 0.0
H H 0.06696526301045534 0.11104920734741532 0.06392312623787562 0.0
H H 0.8321918690815407 0.6957851157066415 0.3206675967297976 0.0
H H 0.5669670409583274 0.044914737067326155 -0.346616567374469 0.0
